/*--------------------------------*- C++ -*----------------------------------*\
  =========                 |
  \\      /  F ield         | OpenFOAM: The Open Source CFD Toolbox
   \\    /   O peration     | Website:  https://openfoam.org
    \\  /    A nd           | Version:  12
     \\/     M anipulation  |
\*---------------------------------------------------------------------------*/
FoamFile
{
    format      ascii;
    class       featureEdgeMesh;
    location    "constant/triSurface";
    object      elbow_2D_named.eMesh;
}
// * * * * * * * * * * * * * * * * * * * * * * * * * * * * * * * * * * * * * //


// points:

106
(
(0 16 1.5)
(0 16 -1.5)
(48 64 1.5)
(48 64 -1.5)
(0 0 1.5)
(0 0 -1.5)
(52.6274 -4.43258 1.5)
(52.6274 -4.43258 -1.5)
(56.6274 -4.43258 1.5)
(56.6274 -4.43258 -1.5)
(64 64 1.5)
(64 64 -1.5)
(52.6274 7.53554 -1.5)
(52.6274 7.53554 1.5)
(56.6274 11.5674 1.5)
(56.6274 11.5674 -1.5)
(32 16 1.5)
(32 16 -1.5)
(48 32 1.5)
(48 32 -1.5)
(47.9627 30.9081 1.5)
(47.9627 30.9081 -1.5)
(47.851 29.8213 1.5)
(47.851 29.8213 -1.5)
(47.6654 28.7447 1.5)
(47.6654 28.7447 -1.5)
(47.4067 27.6833 1.5)
(47.4067 27.6833 -1.5)
(47.0762 26.6419 1.5)
(47.0762 26.6419 -1.5)
(46.6754 25.6256 1.5)
(46.6754 25.6256 -1.5)
(46.2062 24.639 1.5)
(46.2062 24.639 -1.5)
(45.6707 23.6867 1.5)
(45.6707 23.6867 -1.5)
(45.0715 22.7731 1.5)
(45.0715 22.7731 -1.5)
(44.4114 21.9026 1.5)
(44.4114 21.9026 -1.5)
(43.6934 21.0791 1.5)
(43.6934 21.0791 -1.5)
(42.9208 20.3066 1.5)
(42.9208 20.3066 -1.5)
(42.0974 19.5886 1.5)
(42.0974 19.5886 -1.5)
(41.2269 18.9285 1.5)
(41.2269 18.9285 -1.5)
(40.3133 18.3293 1.5)
(40.3133 18.3293 -1.5)
(39.361 17.7938 1.5)
(39.361 17.7938 -1.5)
(38.3744 17.3246 1.5)
(38.3744 17.3246 -1.5)
(37.3581 16.9238 1.5)
(37.3581 16.9238 -1.5)
(36.3167 16.5933 1.5)
(36.3167 16.5933 -1.5)
(35.2553 16.3347 1.5)
(35.2553 16.3347 -1.5)
(34.1787 16.149 1.5)
(34.1787 16.149 -1.5)
(33.0919 16.0373 1.5)
(33.0919 16.0373 -1.5)
(32 0 1.5)
(32 0 -1.5)
(34.0365 0.0648657 -1.5)
(34.0365 0.0648657 1.5)
(36.0647 0.2592 -1.5)
(36.0647 0.2592 1.5)
(38.0764 0.582214 -1.5)
(38.0764 0.582214 1.5)
(40.0635 1.0326 -1.5)
(40.0635 1.0326 1.5)
(42.0179 1.60853 -1.5)
(42.0179 1.60853 1.5)
(43.9317 2.30767 -1.5)
(43.9317 2.30767 1.5)
(45.7971 3.12719 -1.5)
(45.7971 3.12719 1.5)
(47.6066 4.06376 -1.5)
(47.6066 4.06376 1.5)
(49.3528 5.11359 -1.5)
(49.3528 5.11359 1.5)
(51.0287 6.27241 -1.5)
(51.0287 6.27241 1.5)
(57.9823 13.3207 -1.5)
(57.9823 13.3207 1.5)
(59.2127 15.1635 -1.5)
(59.2127 15.1635 1.5)
(60.3126 17.087 -1.5)
(60.3126 17.087 1.5)
(61.2767 19.082 -1.5)
(61.2767 19.082 1.5)
(62.1005 21.139 -1.5)
(62.1005 21.139 1.5)
(62.7799 23.248 -1.5)
(62.7799 23.248 1.5)
(63.3118 25.399 -1.5)
(63.3118 25.399 1.5)
(63.6935 27.5817 -1.5)
(63.6935 27.5817 1.5)
(63.9233 29.7855 -1.5)
(63.9233 29.7855 1.5)
(64 32 -1.5)
(64 32 1.5)
)


// edges:

114
(
(1 0)
(0 16)
(17 1)
(18 2)
(2 3)
(3 19)
(20 18)
(19 21)
(22 20)
(21 23)
(24 22)
(23 25)
(26 24)
(25 27)
(28 26)
(27 29)
(30 28)
(29 31)
(32 30)
(31 33)
(34 32)
(33 35)
(36 34)
(35 37)
(38 36)
(37 39)
(40 38)
(39 41)
(42 40)
(41 43)
(44 42)
(43 45)
(46 44)
(45 47)
(48 46)
(47 49)
(50 48)
(49 51)
(52 50)
(51 53)
(54 52)
(53 55)
(56 54)
(55 57)
(58 56)
(57 59)
(60 58)
(59 61)
(62 60)
(61 63)
(16 62)
(63 17)
(5 4)
(4 0)
(1 5)
(64 4)
(5 65)
(65 66)
(67 64)
(66 68)
(69 67)
(68 70)
(71 69)
(70 72)
(73 71)
(72 74)
(75 73)
(74 76)
(77 75)
(76 78)
(79 77)
(78 80)
(81 79)
(80 82)
(83 81)
(82 84)
(85 83)
(84 12)
(13 85)
(7 6)
(6 13)
(12 7)
(9 8)
(8 6)
(7 9)
(14 8)
(9 15)
(15 86)
(87 14)
(86 88)
(89 87)
(88 90)
(91 89)
(90 92)
(93 91)
(92 94)
(95 93)
(94 96)
(97 95)
(96 98)
(99 97)
(98 100)
(101 99)
(100 102)
(103 101)
(102 104)
(105 103)
(11 10)
(10 105)
(104 11)
(2 10)
(11 3)
(12 13)
(15 14)
)

// * * * * * * * * * * * * * * * * * * * * * * * * * * * * * * * * * * * * * //


// ************************************************************************* //
