/*--------------------------------*- C++ -*----------------------------------*\
  =========                 |
  \\      /  F ield         | OpenFOAM: The Open Source CFD Toolbox
   \\    /   O peration     | Website:  https://openfoam.org
    \\  /    A nd           | Version:  12
     \\/     M anipulation  |
\*---------------------------------------------------------------------------*/
FoamFile
{
    format      ascii;
    class       dictionary;
    object      blockMeshDict;
}
// * * * * * * * * * * * * * * * * * * * * * * * * * * * * * * * * * * * * * //

convertToMeters 1;

vertices
(
    (-1  -8 -1)
    (65  -8 -1)
    (65  65 -1)
    (-1  65 -1)
    (-1  -8  1)
    (65  -8  1)
    (65  65  1)
    (-1  65  1)
);

blocks
(
    hex (0 1 2 3 4 5 6 7) (80 100 1) simpleGrading (1 1 1)
);

edges
(
);

boundary
(
    fixedWalls
    {
        type wall;
        faces
        (
            (3 7 6 2)
            (0 4 7 3)
            (2 6 5 1)
            (1 5 4 0)
        );
    }
    front
    {
        type wall;
        faces
        (
            (0 3 2 1)
        );
    }
    back
    {
        type wall;
        faces
        (
            (4 5 6 7)
        );
    }
);

mergePatchPairs
(
);

// ************************************************************************* //
