/*--------------------------------*- C++ -*----------------------------------*\
  =========                 |
  \\      /  F ield         | OpenFOAM: The Open Source CFD Toolbox
   \\    /   O peration     | Website:  https://openfoam.org
    \\  /    A nd           | Version:  12
     \\/     M anipulation  |
\*---------------------------------------------------------------------------*/
FoamFile
{
    format      ascii;
    class       dictionary;
    location    "system";
    object      functions;
}
// * * * * * * * * * * * * * * * * * * * * * * * * * * * * * * * * * * * * * //

// include packaged functionObjects using #includeFunc
#includeFunc residuals


// DONE: Aktivieren Sie die functionObjects durch entfernen des Kommentarsymbole "//"
//       Ergänzen Sie nach Bedarf weitere functionObjects
#includeFunc wallShearStress
#includeFunc yPlus

#includeFunc forcesPipe
/*
#includeFunc forcePipe0
#includeFunc forcePipe1
#includeFunc forcePipe2
#includeFunc forcePipe3
#includeFunc forcePipe4
#includeFunc forcePipe5
*/

#includeFunc avgPres
#includeFunc avgWSS

// ************************************************************************* //
