/*--------------------------------*- C++ -*----------------------------------*\
  =========                 |
  \\      /  F ield         | OpenFOAM: The Open Source CFD Toolbox
   \\    /   O peration     | Website:  https://openfoam.org
    \\  /    A nd           | Version:  12
     \\/     M anipulation  |
\*---------------------------------------------------------------------------*/
FoamFile
{
    format      ascii;
    class       extendedFeatureEdgeMesh;
    location    "constant/extendedFeatureEdgeMesh";
    object      elbow_auto.extendedFeatureEdgeMesh;
}
// * * * * * * * * * * * * * * * * * * * * * * * * * * * * * * * * * * * * * //

// points

412
(
(0 9.11338 -7.92214)
(0 8.55805 -7.98051)
(0 8 -8)
(0 7.44195 -7.98051)
(0 10.7362 -7.51754)
(0 10.2051 -7.69009)
(0 9.66329 -7.82518)
(0 12.2394 -6.78439)
(0 11.7558 -7.06358)
(0 11.2539 -7.30836)
(0 13.5573 -5.75472)
(0 13.1423 -6.12836)
(0 12.7023 -6.47214)
(0 14.6323 -4.47354)
(0 14.3041 -4.92529)
(0 13.9452 -5.35304)
(0 15.4175 -2.99685)
(0 15.1903 -3.50697)
(0 14.9282 -4)
(0 15.8785 -1.38918)
(0 15.7624 -1.93537)
(0 15.6084 -2.47214)
(0 15.9951 0.279196)
(0 15.9951 -0.279196)
(0 15.9562 -0.836228)
(0 15.7624 1.93537)
(0 15.8785 1.38918)
(0 15.9562 0.836228)
(0 15.1903 3.50697)
(0 15.4175 2.99685)
(0 15.6084 2.47214)
(0 14.3041 4.92529)
(0 14.6323 4.47354)
(0 14.9282 4)
(0 13.1423 6.12836)
(0 13.5573 5.75472)
(0 13.9452 5.35304)
(0 11.7558 7.06358)
(0 12.2394 6.78439)
(0 12.7023 6.47214)
(0 10.2051 7.69009)
(0 10.7362 7.51754)
(0 11.2539 7.30836)
(0 8.55805 7.98051)
(0 9.11338 7.92214)
(0 9.66329 7.82518)
(0 6.88661 7.92214)
(0 7.44195 7.98051)
(0 8 8)
(0 5.26384 7.51754)
(0 5.7949 7.69009)
(0 6.33671 7.82518)
(0 3.76065 6.78439)
(0 4.24423 7.06358)
(0 4.74611 7.30836)
(0 2.44273 5.75472)
(0 2.8577 6.12836)
(0 3.29772 6.47214)
(0 1.3677 4.47354)
(0 1.69591 4.92529)
(0 2.05484 5.35304)
(0 0.582529 2.99685)
(0 0.809648 3.50697)
(0 1.0718 4)
(0 0.121538 1.38918)
(0 0.237634 1.93537)
(0 0.391548 2.47214)
(0 0.00487338 -0.279196)
(0 0.00487338 0.279196)
(0 0.0438248 0.836228)
(0 0.237634 -1.93537)
(0 0.121538 -1.38918)
(0 0.0438248 -0.836228)
(0 0.809648 -3.50697)
(0 0.582529 -2.99685)
(0 0.391548 -2.47214)
(0 1.69591 -4.92529)
(0 1.3677 -4.47354)
(0 1.0718 -4)
(0 2.8577 -6.12836)
(0 2.44273 -5.75472)
(0 2.05484 -5.35304)
(0 4.24423 -7.06358)
(0 3.76065 -6.78439)
(0 3.29772 -6.47214)
(0 5.7949 -7.69009)
(0 5.26384 -7.51754)
(0 4.74611 -7.30836)
(0 6.88661 -7.92214)
(0 6.33671 -7.82518)
(57.1134 64 -7.92214)
(56.558 64 -7.98051)
(56 64 -8)
(55.442 64 -7.98051)
(58.7362 64 -7.51754)
(58.2051 64 -7.69009)
(57.6633 64 -7.82518)
(60.2393 64 -6.78439)
(59.7558 64 -7.06358)
(59.2539 64 -7.30836)
(61.5573 64 -5.75472)
(61.1423 64 -6.12836)
(60.7023 64 -6.47214)
(62.6323 64 -4.47354)
(62.3041 64 -4.92529)
(61.9452 64 -5.35304)
(63.4175 64 -2.99685)
(63.1904 64 -3.50697)
(62.9282 64 -4)
(63.8785 64 -1.38918)
(63.7624 64 -1.93537)
(63.6085 64 -2.47214)
(63.9951 64 0.279196)
(63.9951 64 -0.279196)
(63.9562 64 -0.836228)
(63.7624 64 1.93537)
(63.8785 64 1.38918)
(63.9562 64 0.836228)
(63.1904 64 3.50697)
(63.4175 64 2.99685)
(63.6085 64 2.47214)
(62.3041 64 4.92529)
(62.6323 64 4.47354)
(62.9282 64 4)
(61.1423 64 6.12836)
(61.5573 64 5.75472)
(61.9452 64 5.35304)
(59.7558 64 7.06358)
(60.2393 64 6.78439)
(60.7023 64 6.47214)
(58.2051 64 7.69009)
(58.7362 64 7.51754)
(59.2539 64 7.30836)
(56.558 64 7.98051)
(57.1134 64 7.92214)
(57.6633 64 7.82518)
(54.8866 64 7.92214)
(55.442 64 7.98051)
(56 64 8)
(53.2638 64 7.51754)
(53.7949 64 7.69009)
(54.3367 64 7.82518)
(51.7607 64 6.78439)
(52.2442 64 7.06358)
(52.7461 64 7.30836)
(50.4427 64 5.75472)
(50.8577 64 6.12836)
(51.2977 64 6.47214)
(49.3677 64 4.47354)
(49.6959 64 4.92529)
(50.0548 64 5.35304)
(48.5825 64 2.99685)
(48.8097 64 3.50697)
(49.0718 64 4)
(48.1215 64 1.38918)
(48.2376 64 1.93537)
(48.3915 64 2.47214)
(48.0049 64 -0.279196)
(48.0049 64 0.279196)
(48.0438 64 0.836228)
(48.2376 64 -1.93537)
(48.1215 64 -1.38918)
(48.0438 64 -0.836228)
(48.8097 64 -3.50697)
(48.5825 64 -2.99685)
(48.3915 64 -2.47214)
(49.6959 64 -4.92529)
(49.3677 64 -4.47354)
(49.0718 64 -4)
(50.8577 64 -6.12836)
(50.4427 64 -5.75472)
(50.0548 64 -5.35304)
(52.2442 64 -7.06358)
(51.7607 64 -6.78439)
(51.2977 64 -6.47214)
(53.7949 64 -7.69009)
(53.2638 64 -7.51754)
(52.7461 64 -7.30836)
(54.8866 64 -7.92214)
(54.3367 64 -7.82518)
(52.773 7.70532 0.749213)
(52.8005 7.73718 0.813859)
(54.9058 10.0125 1.98054)
(55.0432 10.1477 1.9563)
(56.2453 11.2488 -1.17579)
(56.2088 11.2176 -1.2244)
(52.7849 7.71909 -0.777923)
(52.7731 7.70541 -0.749404)
(52.9316 7.88866 -1.06028)
(52.8954 7.84691 -1)
(52.8618 7.80817 -0.939497)
(52.8298 7.77116 -0.876742)
(53.4519 8.47843 -1.61803)
(53.3418 8.35532 -1.53209)
(53.2381 8.23842 -1.43868)
(53.1411 8.12845 -1.33826)
(53.0514 8.02612 -1.23132)
(53.0096 7.9783 -1.1759)
(52.9693 7.93207 -1.11839)
(53.8139 8.87718 -1.82709)
(53.6885 8.74017 -1.7659)
(53.5676 8.60698 -1.6961)
(53.5185 8.5526 -1.66443)
(54.9058 10.0125 -1.98054)
(54.7669 9.87415 -1.99513)
(54.6274 9.73329 -2)
(54.4879 9.59062 -1.99513)
(54.3491 9.44689 -1.98054)
(54.2116 9.30287 -1.9563)
(54.0761 9.15936 -1.92252)
(53.9434 9.01719 -1.87938)
(53.8955 8.96552 -1.86125)
(55.3115 10.4061 -1.87938)
(55.1787 10.2791 -1.92252)
(55.0432 10.1477 -1.9563)
(56.2034 11.2129 -1.23132)
(56.1593 11.175 -1.2858)
(56.1137 11.1355 -1.33826)
(56.0657 11.0938 -1.38969)
(56.0167 11.0509 -1.43868)
(55.913 10.9592 -1.53209)
(55.803 10.8609 -1.61803)
(55.6873 10.756 -1.6961)
(55.5664 10.645 -1.7659)
(55.4409 10.5282 -1.82709)
(56.5068 11.4685 -0.684118)
(56.4818 11.4478 -0.749213)
(56.4544 11.425 -0.813781)
(56.425 11.4005 -0.876742)
(56.3931 11.3738 -0.939335)
(56.3595 11.3456 -1)
(56.2888 11.2858 -1.11346)
(56.2855 11.283 -1.11839)
(56.3233 11.3151 -1.06014)
(56.6226 11.5635 -0.139361)
(56.6165 11.5585 -0.209057)
(56.6262 11.5664 -0.069799)
(56.6079 11.5515 -0.278682)
(56.597 11.5427 -0.347296)
(56.5837 11.5317 -0.416069)
(56.568 11.5189 -0.483844)
(56.5499 11.504 -0.551434)
(56.5295 11.4873 -0.618034)
(56.5836 11.5317 0.416159)
(56.597 11.5427 0.347296)
(56.568 11.5189 0.483844)
(56.608 11.5516 0.278266)
(56.6165 11.5585 0.209057)
(56.6226 11.5634 0.139517)
(56.6262 11.5664 0.069799)
(56.6274 11.5674 -4.32045e-08)
(56.3931 11.3738 0.93934)
(56.425 11.4005 0.876742)
(56.4544 11.4251 0.813613)
(56.4818 11.4478 0.749213)
(56.2888 11.2858 1.11346)
(56.3233 11.3151 1.06015)
(56.3595 11.3456 1)
(56.5067 11.4684 0.684214)
(56.5295 11.4873 0.618034)
(56.5499 11.504 0.551534)
(56.2855 11.283 1.11839)
(56.2453 11.2488 1.1758)
(55.803 10.8609 1.61803)
(55.913 10.9592 1.53209)
(56.0167 11.0509 1.43868)
(56.1592 11.1749 1.28592)
(56.2034 11.2129 1.23132)
(56.0657 11.0938 1.38969)
(56.1137 11.1355 1.33826)
(55.3115 10.4061 1.87938)
(55.4409 10.5282 1.82709)
(55.1787 10.2791 1.92252)
(55.5664 10.645 1.7659)
(55.6873 10.756 1.6961)
(55.7363 10.8006 1.66447)
(54.4879 9.59062 1.99513)
(54.6274 9.73329 2)
(54.7669 9.87415 1.99513)
(53.9434 9.01719 1.87938)
(54.0761 9.15936 1.92252)
(54.2116 9.30287 1.9563)
(54.3491 9.44689 1.98054)
(53.6885 8.74017 1.7659)
(53.8139 8.87718 1.82709)
(53.8955 8.96552 1.86125)
(53.0514 8.02612 1.23132)
(53.1411 8.12845 1.33826)
(53.2381 8.23842 1.43868)
(53.3418 8.35532 1.53209)
(53.5185 8.5526 1.66443)
(53.5676 8.60698 1.6961)
(53.4519 8.47843 1.61803)
(52.8298 7.77116 0.876742)
(52.8617 7.80802 0.939253)
(52.8954 7.84691 1)
(52.9317 7.88874 1.06038)
(52.9693 7.93207 1.11839)
(53.0097 7.97838 1.176)
(52.6274 7.53554 -0.000233165)
(52.6286 7.53697 0.069799)
(52.6323 7.54127 0.13984)
(52.6384 7.54836 0.209057)
(52.6469 7.55835 0.278581)
(52.6578 7.57107 0.347296)
(52.6712 7.58666 0.415969)
(52.6868 7.60496 0.483844)
(52.7051 7.62621 0.551844)
(52.7069 7.62832 0.558113)
(52.7253 7.6498 0.618034)
(52.7482 7.67646 0.684533)
(52.6578 7.57107 -0.347296)
(52.6469 7.55832 -0.278407)
(52.705 7.62616 -0.551693)
(52.6868 7.60496 -0.483844)
(52.6712 7.58673 -0.416255)
(52.7481 7.67638 -0.684359)
(52.7253 7.6498 -0.618034)
(52.7069 7.62833 -0.558115)
(52.6384 7.54836 -0.209057)
(52.6323 7.54125 -0.13966)
(52.6286 7.53697 -0.069799)
(54.9058 -4.43258 1.98054)
(54.7669 -4.43258 1.99513)
(54.6274 -4.43258 2)
(54.4879 -4.43258 1.99513)
(55.3115 -4.43258 1.87938)
(55.1787 -4.43258 1.92252)
(55.0432 -4.43258 1.9563)
(55.6873 -4.43258 1.6961)
(55.5664 -4.43258 1.7659)
(55.4409 -4.43258 1.82709)
(56.0167 -4.43258 1.43868)
(55.913 -4.43258 1.53209)
(55.803 -4.43258 1.61803)
(56.2855 -4.43258 1.11839)
(56.2034 -4.43258 1.23132)
(56.1137 -4.43258 1.33826)
(56.4818 -4.43258 0.749213)
(56.425 -4.43258 0.876742)
(56.3595 -4.43258 1)
(56.597 -4.43258 0.347296)
(56.568 -4.43258 0.483844)
(56.5295 -4.43258 0.618034)
(56.6262 -4.43258 -0.069799)
(56.6262 -4.43258 0.069799)
(56.6165 -4.43258 0.209057)
(56.568 -4.43258 -0.483844)
(56.597 -4.43258 -0.347296)
(56.6165 -4.43258 -0.209057)
(56.425 -4.43258 -0.876742)
(56.4818 -4.43258 -0.749213)
(56.5295 -4.43258 -0.618034)
(56.2034 -4.43258 -1.23132)
(56.2855 -4.43258 -1.11839)
(56.3595 -4.43258 -1)
(55.913 -4.43258 -1.53209)
(56.0167 -4.43258 -1.43868)
(56.1137 -4.43258 -1.33826)
(55.5664 -4.43258 -1.7659)
(55.6873 -4.43258 -1.6961)
(55.803 -4.43258 -1.61803)
(55.1787 -4.43258 -1.92252)
(55.3115 -4.43258 -1.87938)
(55.4409 -4.43258 -1.82709)
(54.7669 -4.43258 -1.99513)
(54.9058 -4.43258 -1.98054)
(55.0432 -4.43258 -1.9563)
(54.3491 -4.43258 -1.98054)
(54.4879 -4.43258 -1.99513)
(54.6274 -4.43258 -2)
(53.9434 -4.43258 -1.87938)
(54.0761 -4.43258 -1.92252)
(54.2116 -4.43258 -1.9563)
(53.5676 -4.43258 -1.6961)
(53.6885 -4.43258 -1.7659)
(53.8139 -4.43258 -1.82709)
(53.2381 -4.43258 -1.43868)
(53.3418 -4.43258 -1.53209)
(53.4519 -4.43258 -1.61803)
(52.9693 -4.43258 -1.11839)
(53.0514 -4.43258 -1.23132)
(53.1411 -4.43258 -1.33826)
(52.773 -4.43258 -0.749213)
(52.8298 -4.43258 -0.876742)
(52.8954 -4.43258 -1)
(52.6578 -4.43258 -0.347296)
(52.6868 -4.43258 -0.483844)
(52.7253 -4.43258 -0.618034)
(52.6286 -4.43258 0.069799)
(52.6286 -4.43258 -0.069799)
(52.6384 -4.43258 -0.209057)
(52.6868 -4.43258 0.483844)
(52.6578 -4.43258 0.347296)
(52.6384 -4.43258 0.209057)
(52.8298 -4.43258 0.876742)
(52.773 -4.43258 0.749213)
(52.7253 -4.43258 0.618034)
(53.0514 -4.43258 1.23132)
(52.9693 -4.43258 1.11839)
(52.8954 -4.43258 1)
(53.3418 -4.43258 1.53209)
(53.2381 -4.43258 1.43868)
(53.1411 -4.43258 1.33826)
(53.6885 -4.43258 1.7659)
(53.5676 -4.43258 1.6961)
(53.4519 -4.43258 1.61803)
(54.0761 -4.43258 1.92252)
(53.9434 -4.43258 1.87938)
(53.8139 -4.43258 1.82709)
(54.3491 -4.43258 1.98054)
(54.2116 -4.43258 1.9563)
)

// edges

412
(
(0 1)
(1 2)
(2 3)
(4 5)
(5 6)
(6 0)
(7 8)
(8 9)
(9 4)
(10 11)
(11 12)
(12 7)
(13 14)
(14 15)
(15 10)
(16 17)
(17 18)
(18 13)
(19 20)
(20 21)
(21 16)
(22 23)
(23 24)
(24 19)
(25 26)
(26 27)
(27 22)
(28 29)
(29 30)
(30 25)
(31 32)
(32 33)
(33 28)
(34 35)
(35 36)
(36 31)
(37 38)
(38 39)
(39 34)
(40 41)
(41 42)
(42 37)
(43 44)
(44 45)
(45 40)
(46 47)
(47 48)
(48 43)
(49 50)
(50 51)
(51 46)
(52 53)
(53 54)
(54 49)
(55 56)
(56 57)
(57 52)
(58 59)
(59 60)
(60 55)
(61 62)
(62 63)
(63 58)
(64 65)
(65 66)
(66 61)
(67 68)
(68 69)
(69 64)
(70 71)
(71 72)
(72 67)
(73 74)
(74 75)
(75 70)
(76 77)
(77 78)
(78 73)
(79 80)
(80 81)
(81 76)
(82 83)
(83 84)
(84 79)
(85 86)
(86 87)
(87 82)
(3 88)
(88 89)
(89 85)
(90 91)
(91 92)
(92 93)
(94 95)
(95 96)
(96 90)
(97 98)
(98 99)
(99 94)
(100 101)
(101 102)
(102 97)
(103 104)
(104 105)
(105 100)
(106 107)
(107 108)
(108 103)
(109 110)
(110 111)
(111 106)
(112 113)
(113 114)
(114 109)
(115 116)
(116 117)
(117 112)
(118 119)
(119 120)
(120 115)
(121 122)
(122 123)
(123 118)
(124 125)
(125 126)
(126 121)
(127 128)
(128 129)
(129 124)
(130 131)
(131 132)
(132 127)
(133 134)
(134 135)
(135 130)
(136 137)
(137 138)
(138 133)
(139 140)
(140 141)
(141 136)
(142 143)
(143 144)
(144 139)
(145 146)
(146 147)
(147 142)
(148 149)
(149 150)
(150 145)
(151 152)
(152 153)
(153 148)
(154 155)
(155 156)
(156 151)
(157 158)
(158 159)
(159 154)
(160 161)
(161 162)
(162 157)
(163 164)
(164 165)
(165 160)
(166 167)
(167 168)
(168 163)
(169 170)
(170 171)
(171 166)
(172 173)
(173 174)
(174 169)
(175 176)
(176 177)
(177 172)
(93 178)
(178 179)
(179 175)
(322 323)
(323 324)
(324 325)
(326 327)
(327 328)
(328 322)
(329 330)
(330 331)
(331 326)
(332 333)
(333 334)
(334 329)
(335 336)
(336 337)
(337 332)
(338 339)
(339 340)
(340 335)
(341 342)
(342 343)
(343 338)
(344 345)
(345 346)
(346 341)
(347 348)
(348 349)
(349 344)
(350 351)
(351 352)
(352 347)
(353 354)
(354 355)
(355 350)
(356 357)
(357 358)
(358 353)
(359 360)
(360 361)
(361 356)
(362 363)
(363 364)
(364 359)
(365 366)
(366 367)
(367 362)
(368 369)
(369 370)
(370 365)
(371 372)
(372 373)
(373 368)
(374 375)
(375 376)
(376 371)
(377 378)
(378 379)
(379 374)
(380 381)
(381 382)
(382 377)
(383 384)
(384 385)
(385 380)
(386 387)
(387 388)
(388 383)
(389 390)
(390 391)
(391 386)
(392 393)
(393 394)
(394 389)
(395 396)
(396 397)
(397 392)
(398 399)
(399 400)
(400 395)
(401 402)
(402 403)
(403 398)
(404 405)
(405 406)
(406 401)
(407 408)
(408 409)
(409 404)
(325 410)
(410 411)
(411 407)
(180 181)
(182 183)
(184 185)
(186 187)
(188 189)
(189 190)
(190 191)
(192 193)
(193 194)
(194 195)
(195 196)
(196 197)
(197 198)
(198 188)
(199 200)
(200 201)
(201 202)
(202 192)
(203 204)
(204 205)
(206 207)
(207 208)
(208 209)
(209 210)
(210 211)
(212 213)
(213 214)
(214 203)
(185 215)
(215 216)
(216 217)
(217 218)
(218 219)
(219 220)
(220 221)
(221 222)
(222 223)
(223 224)
(225 226)
(226 227)
(227 228)
(228 229)
(229 230)
(231 232)
(233 231)
(230 233)
(234 235)
(236 234)
(235 237)
(237 238)
(238 239)
(239 240)
(240 241)
(241 242)
(242 225)
(243 244)
(245 243)
(244 246)
(246 247)
(247 248)
(248 249)
(249 250)
(250 236)
(251 252)
(252 253)
(253 254)
(255 256)
(256 257)
(257 251)
(254 258)
(258 259)
(259 260)
(260 245)
(261 255)
(262 261)
(263 264)
(264 265)
(266 267)
(265 268)
(268 269)
(269 266)
(270 271)
(272 270)
(271 273)
(273 274)
(274 275)
(275 263)
(276 277)
(277 278)
(278 182)
(279 280)
(280 281)
(281 282)
(283 284)
(284 285)
(285 279)
(286 287)
(287 288)
(288 289)
(290 291)
(292 290)
(289 292)
(181 293)
(293 294)
(294 295)
(295 296)
(296 297)
(297 298)
(298 286)
(299 300)
(300 301)
(301 302)
(302 303)
(303 304)
(304 305)
(305 306)
(306 307)
(307 308)
(308 309)
(309 310)
(311 312)
(313 314)
(314 315)
(315 311)
(187 316)
(316 317)
(317 318)
(318 313)
(312 319)
(319 320)
(320 321)
(321 299)
(183 272)
(282 276)
(291 283)
(267 262)
(310 180)
(232 184)
(224 212)
(205 206)
(211 199)
(191 186)
)

// concaveStart mixedStart nonFeatureStart
0 0 0
// internalStart flatStart openStart multipleStart
270 412 412 412
// normals

824
(
(-1 -0 0)
(-0.000152256 0.104533 -0.994521)
(-1 0 0)
(-0.00015244 0.0349035 -0.999391)
(-1 0 -0)
(-0.00015244 -0.0349035 -0.999391)
(-1 -0 0)
(-0.000151753 0.308993 -0.951064)
(-1 0 0)
(-0.000152531 0.241924 -0.970295)
(-1 0 0)
(-0.000152301 0.173642 -0.984809)
(-1 -0 0)
(-0.000151564 0.499978 -0.866038)
(-1 0 0)
(-0.000152476 0.438352 -0.898803)
(-1 0 0)
(-0.000152616 0.374631 -0.927174)
(-1 -0 0)
(-0.000153074 0.669103 -0.74317)
(-1 0 0)
(-0.00015228 0.615678 -0.787998)
(-1 0 0)
(-0.000150849 0.559218 -0.829021)
(-1 -0 0)
(-0.000151227 0.80903 -0.587767)
(-1 0 0)
(-0.00015274 0.766066 -0.642761)
(-1 0 0)
(-0.000151139 0.719338 -0.694661)
(-1 -0 0)
(-0.000153646 0.913493 -0.406855)
(-1 0 0)
(-0.000153541 0.882984 -0.469404)
(-1 0 0)
(-0.000152702 0.848049 -0.529918)
(-1 -0 0)
(-0.000151797 0.978146 -0.207919)
(-1 0 0)
(-0.000152762 0.961222 -0.275775)
(-1 0 0)
(-0.000151408 0.939737 -0.341897)
(-1 0 -0)
(-0.000153124 1 0)
(-1 0 0)
(-0.000151947 0.99757 -0.0696654)
(-1 0 0)
(-0.000149941 0.990271 -0.139151)
(-1 0 -0)
(-0.000151797 0.978146 0.207919)
(-1 0 0)
(-0.000149941 0.990271 0.139151)
(-1 0 0)
(-0.000151947 0.99757 0.0696654)
(-1 0 -0)
(-0.000153646 0.913493 0.406855)
(-1 0 0)
(-0.000151408 0.939737 0.341897)
(-1 0 0)
(-0.000152762 0.961222 0.275775)
(-1 0 -0)
(-0.000151227 0.80903 0.587767)
(-1 0 0)
(-0.000152702 0.848049 0.529918)
(-1 0 0)
(-0.000153541 0.882984 0.469404)
(-1 0 -0)
(-0.000153074 0.669103 0.74317)
(-1 0 0)
(-0.000151139 0.719338 0.694661)
(-1 0 0)
(-0.00015274 0.766066 0.642761)
(-1 0 -0)
(-0.000151564 0.499978 0.866038)
(-1 0 0)
(-0.000150849 0.559218 0.829021)
(-1 0 0)
(-0.00015228 0.615678 0.787998)
(-1 0 -0)
(-0.000151753 0.308993 0.951064)
(-1 0 0)
(-0.000152616 0.374631 0.927174)
(-1 0 0)
(-0.000152476 0.438352 0.898803)
(-1 0 -0)
(-0.000152256 0.104533 0.994521)
(-1 0 0)
(-0.000152301 0.173642 0.984809)
(-1 0 0)
(-0.000152531 0.241924 0.970295)
(-1 0 0)
(-0.000152239 -0.104531 0.994522)
(-1 0 0)
(-0.00015244 -0.0349035 0.999391)
(-1 0 0)
(-0.00015244 0.0349035 0.999391)
(-1 0 0)
(-0.000152331 -0.309014 0.951057)
(-1 0 0)
(-0.000152531 -0.241924 0.970295)
(-1 0 0)
(-0.00015233 -0.173644 0.984808)
(-1 0 0)
(-0.000152188 -0.499993 0.866029)
(-1 0 0)
(-0.000152336 -0.438366 0.898796)
(-1 0 0)
(-0.000152328 -0.374612 0.927182)
(-1 0 0)
(-0.000152129 -0.669129 0.743146)
(-1 0 0)
(-0.000152287 -0.61566 0.788012)
(-1 0 0)
(-0.000152155 -0.559193 0.829038)
(-1 0 0)
(-0.000152361 -0.809022 0.587778)
(-1 0 0)
(-0.000152386 -0.76604 0.642793)
(-1 0 0)
(-0.000152377 -0.719347 0.694651)
(-1 0 0)
(-0.000152278 -0.913546 0.406735)
(-1 0 0)
(-0.000152307 -0.882945 0.469476)
(-1 0 0)
(-0.000152173 -0.848049 0.529919)
(-1 0 0)
(-0.000152309 -0.978148 0.207911)
(-1 0 0)
(-0.00015232 -0.961263 0.275633)
(-1 0 0)
(-0.000152274 -0.939691 0.342024)
(-1 0 0)
(-0.000152293 -1 0)
(-1 0 0)
(-0.000152293 -0.997564 0.0697564)
(-1 0 0)
(-0.000152282 -0.990268 0.139175)
(-1 0 0)
(-0.000152309 -0.978148 -0.207911)
(-1 0 0)
(-0.000152282 -0.990268 -0.139175)
(-1 0 0)
(-0.000152293 -0.997564 -0.0697564)
(-1 0 0)
(-0.000152278 -0.913546 -0.406735)
(-1 0 0)
(-0.000152274 -0.939691 -0.342024)
(-1 0 0)
(-0.00015232 -0.961263 -0.275633)
(-1 0 0)
(-0.000152361 -0.809022 -0.587778)
(-1 0 0)
(-0.000152173 -0.848049 -0.529919)
(-1 0 0)
(-0.000152307 -0.882945 -0.469476)
(-1 0 0)
(-0.000152129 -0.669129 -0.743146)
(-1 0 0)
(-0.000152377 -0.719347 -0.694651)
(-1 0 0)
(-0.000152386 -0.76604 -0.642793)
(-1 0 0)
(-0.000152188 -0.499993 -0.866029)
(-1 0 0)
(-0.000152155 -0.559193 -0.829038)
(-1 0 0)
(-0.000152287 -0.61566 -0.788012)
(-1 0 0)
(-0.000152331 -0.309014 -0.951057)
(-1 0 0)
(-0.000152328 -0.374612 -0.927182)
(-1 0 0)
(-0.000152336 -0.438366 -0.898796)
(-1 0 0)
(-0.000152239 -0.104531 -0.994522)
(-1 0 0)
(-0.00015233 -0.173644 -0.984808)
(-1 0 0)
(-0.000152531 -0.241924 -0.970295)
(0 1 0)
(0.10452 0.000152212 -0.994523)
(0 1 0)
(0.0349067 0.00015247 -0.999391)
(0 1 0)
(-0.0349067 0.00015247 -0.999391)
(0 1 0)
(0.308995 0.000151749 -0.951064)
(0 1 0)
(0.241928 0.000152629 -0.970294)
(0 1 0)
(0.173644 0.000152322 -0.984808)
(0 1 0)
(0.500054 0.000152361 -0.865994)
(0 1 0)
(0.438353 0.000152496 -0.898803)
(0 1 0)
(0.37463 0.00015146 -0.927174)
(0 1 0)
(0.669102 0.000153064 -0.743171)
(0 1 0)
(0.615679 0.00015229 -0.787997)
(0 1 0)
(0.559134 0.000151699 -0.829078)
(0 1 0)
(0.809029 0.000151191 -0.587768)
(0 1 0)
(0.766068 0.00015032 -0.642759)
(0 1 0)
(0.719337 0.000151107 -0.694662)
(0 1 0)
(0.913559 0.000152203 -0.406707)
(0 1 0)
(0.88291 0.000152146 -0.469542)
(0 1 0)
(0.84805 0.000152715 -0.529917)
(0 1 0)
(0.978146 0.000151709 -0.207919)
(0 1 0)
(0.961269 0.000151273 -0.275611)
(0 1 0)
(0.939679 0.000149979 -0.342057)
(0 1 0)
(1 0.000153184 0)
(0 1 0)
(0.997571 0.000151947 -0.069662)
(0 1 0)
(0.990272 0.000149911 -0.139148)
(0 1 0)
(0.978146 0.000151709 0.207919)
(0 1 0)
(0.990272 0.000149911 0.139148)
(0 1 0)
(0.997571 0.000151947 0.069662)
(0 1 0)
(0.913559 0.000152203 0.406707)
(0 1 0)
(0.939679 0.000149979 0.342057)
(0 1 0)
(0.961269 0.000151273 0.275611)
(0 1 0)
(0.809029 0.000151191 0.587768)
(0 1 0)
(0.84805 0.000152715 0.529917)
(0 1 0)
(0.88291 0.000152146 0.469542)
(0 1 0)
(0.669102 0.000153064 0.743171)
(0 1 0)
(0.719337 0.000151107 0.694662)
(0 1 0)
(0.766068 0.00015032 0.642759)
(0 1 0)
(0.500054 0.000152361 0.865994)
(0 1 0)
(0.559134 0.000151699 0.829078)
(0 1 0)
(0.615679 0.00015229 0.787997)
(0 1 0)
(0.308995 0.000151749 0.951064)
(0 1 0)
(0.37463 0.00015146 0.927174)
(0 1 0)
(0.438353 0.000152496 0.898803)
(0 1 0)
(0.10452 0.000152212 0.994523)
(0 1 0)
(0.173644 0.000152322 0.984808)
(0 1 0)
(0.241928 0.000152629 0.970294)
(-0 1 0)
(-0.10452 0.000152212 0.994523)
(0 1 -0)
(-0.0349067 0.00015247 0.999391)
(0 1 0)
(0.0349067 0.00015247 0.999391)
(-0 1 0)
(-0.308995 0.000151749 0.951064)
(0 1 0)
(-0.241928 0.000152629 0.970294)
(0 1 0)
(-0.173644 0.000152322 0.984808)
(-0 1 0)
(-0.500054 0.000152361 0.865994)
(0 1 0)
(-0.438353 0.000152496 0.898803)
(0 1 0)
(-0.37463 0.00015146 0.927174)
(-0 1 0)
(-0.669102 0.00015099 0.743171)
(0 1 0)
(-0.615679 0.00015229 0.787997)
(0 1 0)
(-0.559134 0.000151699 0.829078)
(-0 1 0)
(-0.809029 0.000151191 0.587768)
(0 1 0)
(-0.766068 0.00015032 0.642759)
(0 1 0)
(-0.719337 0.000151107 0.694662)
(-0 1 0)
(-0.913493 0.000153619 0.406855)
(0 1 0)
(-0.882984 0.000153515 0.469404)
(0 1 0)
(-0.84805 0.000152715 0.529917)
(-0 1 0)
(-0.978146 0.000151709 0.207919)
(0 1 0)
(-0.961269 0.000151273 0.275611)
(0 1 0)
(-0.939679 0.000149979 0.342057)
(0 1 0)
(-1 0.000153184 0)
(0 1 0)
(-0.997571 0.000151947 0.069662)
(0 1 0)
(-0.990272 0.000149911 0.139148)
(0 1 -0)
(-0.978146 0.000151709 -0.207919)
(0 1 0)
(-0.990272 0.000149911 -0.139148)
(0 1 0)
(-0.997571 0.000151947 -0.069662)
(0 1 -0)
(-0.913493 0.000153619 -0.406855)
(0 1 0)
(-0.939679 0.000149979 -0.342057)
(0 1 0)
(-0.961269 0.000151273 -0.275611)
(0 1 -0)
(-0.809029 0.000151191 -0.587768)
(0 1 0)
(-0.84805 0.000152715 -0.529917)
(0 1 0)
(-0.882984 0.000153515 -0.469404)
(0 1 -0)
(-0.669102 0.00015099 -0.743171)
(0 1 0)
(-0.719337 0.000151107 -0.694662)
(0 1 0)
(-0.766068 0.00015032 -0.642759)
(0 1 -0)
(-0.500054 0.000152361 -0.865994)
(0 1 0)
(-0.559134 0.000151699 -0.829078)
(0 1 0)
(-0.615679 0.00015229 -0.787997)
(0 1 -0)
(-0.308995 0.000151749 -0.951064)
(0 1 0)
(-0.37463 0.00015146 -0.927174)
(0 1 0)
(-0.438353 0.000152496 -0.898803)
(0 1 -0)
(-0.10452 0.000152212 -0.994523)
(0 1 0)
(-0.173644 0.000152322 -0.984808)
(0 1 0)
(-0.241928 0.000152629 -0.970294)
(0.61361 -0.779915 0.123349)
(-0.9202 0 0.391449)
(0.70018 -0.664982 0.259899)
(0.173734 -0 0.984793)
(0.766791 -0.616043 -0.18034)
(0.799718 -0.00014753 -0.600376)
(0.626281 -0.771649 -0.11104)
(-0.923989 -0.000304154 -0.382418)
(0.646811 -0.751166 -0.131853)
(-0.857247 -0.000194594 -0.514905)
(0.64328 -0.755145 -0.12628)
(-0.874237 0 -0.4855)
(0.637725 -0.760346 -0.12321)
(-0.890808 -0.00019931 -0.454379)
(0.647235 -0.730622 -0.217434)
(-0.615308 0 -0.788286)
(0.647427 -0.735093 -0.201188)
(-0.669272 0 -0.743018)
(0.645431 -0.740461 -0.187447)
(-0.719262 0 -0.694739)
(0.641186 -0.746757 -0.176732)
(-0.766153 0 -0.642658)
(0.635731 -0.752913 -0.170197)
(-0.798389 0 -0.602142)
(0.646863 -0.748096 -0.148055)
(-0.818855 -0.000194598 -0.574)
(0.647854 -0.748944 -0.139167)
(-0.838911 0 -0.544269)
(0.647771 -0.71288 -0.268692)
(-0.438534 0 -0.898715)
(0.646445 -0.719628 -0.253467)
(-0.499994 0 -0.866029)
(0.643193 -0.724698 -0.247214)
(-0.542045 0 -0.84035)
(0.645078 -0.726802 -0.235867)
(-0.571518 -0.000159636 -0.820589)
(0.694377 -0.669255 -0.264459)
(0.104464 0 -0.994529)
(0.688013 -0.671885 -0.274241)
(0.0348896 0 -0.999391)
(0.673873 -0.680078 -0.288773)
(-0.104537 0 -0.994521)
(0.672864 -0.688102 -0.271606)
(-0.173618 0 -0.984813)
(0.670482 -0.694503 -0.260996)
(-0.241892 0 -0.970303)
(0.666909 -0.699988 -0.255441)
(-0.309172 0 -0.951006)
(0.663114 -0.703985 -0.254332)
(-0.353981 0 -0.935253)
(0.709912 -0.651295 -0.26803)
(0.308955 0 -0.951077)
(0.704792 -0.659706 -0.260877)
(0.241898 0 -0.970302)
(0.70018 -0.664982 -0.259899)
(0.173734 0 -0.984793)
(0.766903 -0.615904 -0.180339)
(0.78838 -0.000303436 -0.615189)
(0.759835 -0.624538 -0.180565)
(0.777279 0 -0.629156)
(0.754944 -0.630084 -0.181808)
(0.754724 0 -0.656043)
(0.749777 -0.635432 -0.184558)
(0.731062 0 -0.682311)
(0.746453 -0.638473 -0.18751)
(0.707105 -0.000156208 -0.707109)
(0.741942 -0.641931 -0.193511)
(0.669272 0 -0.743018)
(0.736818 -0.643681 -0.206817)
(0.615666 0 -0.788007)
(0.733118 -0.64239 -0.223321)
(0.559338 0 -0.828939)
(0.728586 -0.63981 -0.244554)
(0.499982 0 -0.866036)
(0.722485 -0.642449 -0.255489)
(0.438254 0 -0.898851)
(0.777298 -0.62096 -0.101075)
(0.933514 0 -0.358542)
(0.775145 -0.62227 -0.109222)
(0.920538 0 -0.390652)
(0.772981 -0.623281 -0.118411)
(0.906083 0 -0.423099)
(0.771203 -0.623808 -0.126924)
(0.890973 0 -0.454056)
(0.769506 -0.623958 -0.13615)
(0.874787 0 -0.484508)
(0.7683 -0.619087 -0.162623)
(0.831107 -0.000275845 -0.556112)
(0.766824 -0.623178 -0.153724)
(0.839614 -0.000144266 -0.543184)
(0.767921 -0.623697 -0.14594)
(0.856754 0 -0.515726)
(0.784657 -0.619457 -0.0242312)
(0.996192 0 -0.0871854)
(0.78063 -0.624828 -0.0143702)
(0.998663 0 -0.0516986)
(0.782465 -0.621757 -0.034163)
(0.992454 0 -0.122617)
(0.780611 -0.623465 -0.0440252)
(0.987619 0 -0.156873)
(0.779542 -0.624276 -0.0509286)
(0.981804 0 -0.189897)
(0.778162 -0.624977 -0.0621961)
(0.974211 0 -0.225639)
(0.777406 -0.625047 -0.0703994)
(0.965961 0 -0.258687)
(0.782285 -0.617109 -0.0848918)
(0.956147 0 -0.292888)
(0.780023 -0.618977 -0.0918209)
(0.94577 0 -0.324838)
(0.779383 -0.624392 0.0519354)
(0.981586 0 0.191021)
(0.778253 -0.624965 0.0611618)
(0.974458 0 0.224568)
(0.780611 -0.623465 0.0440204)
(0.987537 0 0.157388)
(0.782478 -0.621744 0.0341063)
(0.992544 0 0.121888)
(0.781329 -0.623634 0.0245913)
(0.996175 0 0.0873795)
(0.780603 -0.624883 0.0134369)
(0.998669 0 0.0515832)
(0.780303 -0.625386 0.00442727)
(0.999853 0 0.0171584)
(0.780303 -0.625386 -0.00442728)
(0.999853 0 -0.0171584)
(0.771205 -0.623808 0.126915)
(0.890988 0 0.454027)
(0.77322 -0.623205 0.117247)
(0.906515 0 0.422174)
(0.774858 -0.622439 0.110293)
(0.920172 0 0.391515)
(0.76682 -0.623175 0.153752)
(0.839567 -0.000144991 0.543256)
(0.767925 -0.623698 0.145918)
(0.856792 0 0.515663)
(0.769504 -0.623958 0.136161)
(0.87477 0 0.484539)
(0.777327 -0.620942 0.100966)
(0.933831 0 0.357714)
(0.779983 -0.61901 0.0919421)
(0.945462 0 0.325732)
(0.776716 -0.624563 0.0814393)
(0.956023 0 0.293291)
(0.777416 -0.625046 0.0702981)
(0.966057 0 0.25833)
(0.766154 -0.622633 0.159172)
(0.831035 -0 0.55622)
(0.766557 -0.619965 0.167435)
(0.81915 -0 0.57358)
(0.736818 -0.643681 0.206817)
(0.615666 -0 0.788007)
(0.741942 -0.641931 0.193511)
(0.669272 -0 0.743018)
(0.7599 -0.624459 0.180563)
(0.777239 -0 0.629206)
(0.746453 -0.638473 0.18751)
(0.707036 -0 0.707177)
(0.749777 -0.635432 0.184558)
(0.731062 -0 0.682311)
(0.754881 -0.630149 0.181841)
(0.754714 -0 0.656054)
(0.716272 -0.643981 0.26878)
(0.374666 -0 0.92716)
(0.709173 -0.64441 0.286023)
(0.308955 -0 0.951077)
(0.722485 -0.642449 0.255489)
(0.438254 -0 0.898851)
(0.728586 -0.63981 0.244554)
(0.499982 -0 0.866036)
(0.732135 -0.641067 0.230241)
(0.542336 -0 0.840162)
(0.73396 -0.642693 0.219655)
(0.571396 -0 0.820674)
(0.67852 -0.673458 0.293367)
(-0.0348896 0 0.999391)
(0.688013 -0.671885 0.274241)
(0.0348896 -0 0.999391)
(0.694377 -0.669255 0.264459)
(0.104464 -0 0.994529)
(0.666909 -0.699988 0.255441)
(-0.309172 0 0.951006)
(0.670482 -0.694503 0.260996)
(-0.241892 0 0.970303)
(0.672864 -0.688102 0.271606)
(-0.173618 0 0.984813)
(0.65313 -0.712418 0.256675)
(-0.438534 0 0.898715)
(0.659415 -0.707453 0.254327)
(-0.386155 0 0.922434)
(0.663114 -0.703985 0.254332)
(-0.353763 -0.000230174 0.935335)
(0.641186 -0.746757 0.176732)
(-0.766153 0 0.642658)
(0.645431 -0.740461 0.187447)
(-0.719262 0 0.694739)
(0.647427 -0.735093 0.201188)
(-0.669272 0 0.743018)
(0.644711 -0.72435 0.244264)
(-0.54187 -0.000223991 0.840462)
(0.645078 -0.726802 0.235867)
(-0.571638 0 0.820506)
(0.647235 -0.730622 0.217434)
(-0.615308 0 0.788286)
(0.628698 -0.76801 0.122062)
(-0.90643 0 0.422356)
(0.637472 -0.760564 0.123178)
(-0.890732 0 0.454529)
(0.643373 -0.755042 0.126426)
(-0.874435 0 0.485142)
(0.646702 -0.75129 0.13168)
(-0.857038 0 0.515254)
(0.647816 -0.748911 0.139524)
(-0.839162 0 0.543881)
(0.631146 -0.757607 0.166392)
(-0.818735 0 0.574172)
(0.635854 -0.752777 0.170343)
(-0.798553 0 0.601924)
(0.628492 -0.777799 0.00509858)
(-0.999853 -0.000200131 0.0171598)
(0.621624 -0.783167 0.0152363)
(-0.998607 0 0.0527563)
(0.623887 -0.781114 0.0250321)
(-0.99614 0 0.0877841)
(0.625791 -0.779184 0.035463)
(-0.99261 0 0.121344)
(0.62701 -0.777738 0.0445228)
(-0.987655 0 0.156648)
(0.627823 -0.776498 0.0537606)
(-0.981487 0 0.19153)
(0.628276 -0.7753 0.064648)
(-0.974596 0 0.223971)
(0.628253 -0.774581 0.0729584)
(-0.965633 0 0.25991)
(0.627926 -0.774129 0.0802061)
(-0.961134 -9.45248e-05 0.276083)
(0.622456 -0.777729 0.0876684)
(-0.955954 0 0.293518)
(0.624149 -0.775394 0.0959292)
(-0.945509 0 0.325596)
(0.62703 -0.777709 -0.0447411)
(-0.987716 0 -0.156262)
(0.62825 -0.774536 -0.0734544)
(-0.965826 -0.0001998 -0.259191)
(0.628276 -0.775343 -0.0641291)
(-0.974389 0 -0.224871)
(0.627868 -0.776423 -0.0543011)
(-0.981627 -0.000200939 -0.190809)
(0.625538 -0.773147 -0.104619)
(-0.933422 2.2739e-06 -0.358781)
(0.624192 -0.775332 -0.0961437)
(-0.945656 -0.000202908 -0.325168)
(0.627705 -0.773848 -0.0845392)
(-0.955951 0 -0.293527)
(0.628145 -0.774389 -0.0758633)
(-0.958919 -5.34454e-05 -0.283681)
(0.625749 -0.779229 -0.0352261)
(-0.99257 -0.000203128 -0.121673)
(0.623915 -0.781087 -0.025182)
(-0.996159 0 -0.0875582)
(0.628058 -0.778033 -0.0144011)
(-0.9986 -0.000202088 -0.0529042)
(0.628491 -0.7778 -0.00513281)
(-0.999851 0 -0.0172707)
(0.704792 -0.659706 0.260877)
(0.241898 -0 0.970302)
(0.673873 -0.680078 0.288773)
(-0.104537 0 0.994521)
(0.646445 -0.719628 0.253467)
(-0.499994 0 0.866029)
(0.766786 -0.616048 0.180343)
(0.798198 -0 0.602395)
(0.625598 -0.773039 0.105064)
(-0.93372 0 0.358003)
(0.766549 -0.619969 -0.167456)
(0.819103 0 -0.573647)
(0.716272 -0.643981 -0.26878)
(0.374666 0 -0.92716)
(0.67852 -0.673458 -0.293367)
(-0.0348896 0 -0.999391)
(0.659415 -0.707453 -0.254327)
(-0.386034 -0.000131875 -0.922485)
(0.625733 -0.770488 -0.121683)
(-0.910432 0 -0.41366)
(-0 -1 0)
(0.104464 0 0.994529)