/*--------------------------------*- C++ -*----------------------------------*\
  =========                 |
  \\      /  F ield         | OpenFOAM: The Open Source CFD Toolbox
   \\    /   O peration     | Website:  https://openfoam.org
    \\  /    A nd           | Version:  12
     \\/     M anipulation  |
\*---------------------------------------------------------------------------*/
FoamFile
{
    format      ascii;
    class       extendedFeatureEdgeMesh;
    location    "constant/extendedFeatureEdgeMesh";
    object      elbow_2D_named.extendedFeatureEdgeMesh;
}
// * * * * * * * * * * * * * * * * * * * * * * * * * * * * * * * * * * * * * //

// points

106
(
(0 16 1.5)
(0 16 -1.5)
(48 64 1.5)
(48 64 -1.5)
(0 0 1.5)
(0 0 -1.5)
(52.6274 -4.43258 1.5)
(52.6274 -4.43258 -1.5)
(56.6274 -4.43258 1.5)
(56.6274 -4.43258 -1.5)
(64 64 1.5)
(64 64 -1.5)
(52.6274 7.53554 -1.5)
(52.6274 7.53554 1.5)
(56.6274 11.5674 1.5)
(56.6274 11.5674 -1.5)
(32 16 1.5)
(32 16 -1.5)
(48 32 1.5)
(48 32 -1.5)
(47.9627 30.9081 1.5)
(47.9627 30.9081 -1.5)
(47.851 29.8213 1.5)
(47.851 29.8213 -1.5)
(47.6654 28.7447 1.5)
(47.6654 28.7447 -1.5)
(47.4067 27.6833 1.5)
(47.4067 27.6833 -1.5)
(47.0762 26.6419 1.5)
(47.0762 26.6419 -1.5)
(46.6754 25.6256 1.5)
(46.6754 25.6256 -1.5)
(46.2062 24.639 1.5)
(46.2062 24.639 -1.5)
(45.6707 23.6867 1.5)
(45.6707 23.6867 -1.5)
(45.0715 22.7731 1.5)
(45.0715 22.7731 -1.5)
(44.4114 21.9026 1.5)
(44.4114 21.9026 -1.5)
(43.6934 21.0791 1.5)
(43.6934 21.0791 -1.5)
(42.9208 20.3066 1.5)
(42.9208 20.3066 -1.5)
(42.0974 19.5886 1.5)
(42.0974 19.5886 -1.5)
(41.2269 18.9285 1.5)
(41.2269 18.9285 -1.5)
(40.3133 18.3293 1.5)
(40.3133 18.3293 -1.5)
(39.361 17.7938 1.5)
(39.361 17.7938 -1.5)
(38.3744 17.3246 1.5)
(38.3744 17.3246 -1.5)
(37.3581 16.9238 1.5)
(37.3581 16.9238 -1.5)
(36.3167 16.5933 1.5)
(36.3167 16.5933 -1.5)
(35.2553 16.3347 1.5)
(35.2553 16.3347 -1.5)
(34.1787 16.149 1.5)
(34.1787 16.149 -1.5)
(33.0919 16.0373 1.5)
(33.0919 16.0373 -1.5)
(32 0 1.5)
(32 0 -1.5)
(34.0365 0.0648657 -1.5)
(34.0365 0.0648657 1.5)
(36.0647 0.2592 -1.5)
(36.0647 0.2592 1.5)
(38.0764 0.582214 -1.5)
(38.0764 0.582214 1.5)
(40.0635 1.0326 -1.5)
(40.0635 1.0326 1.5)
(42.0179 1.60853 -1.5)
(42.0179 1.60853 1.5)
(43.9317 2.30767 -1.5)
(43.9317 2.30767 1.5)
(45.7971 3.12719 -1.5)
(45.7971 3.12719 1.5)
(47.6066 4.06376 -1.5)
(47.6066 4.06376 1.5)
(49.3528 5.11359 -1.5)
(49.3528 5.11359 1.5)
(51.0287 6.27241 -1.5)
(51.0287 6.27241 1.5)
(57.9823 13.3207 -1.5)
(57.9823 13.3207 1.5)
(59.2127 15.1635 -1.5)
(59.2127 15.1635 1.5)
(60.3126 17.087 -1.5)
(60.3126 17.087 1.5)
(61.2767 19.082 -1.5)
(61.2767 19.082 1.5)
(62.1005 21.139 -1.5)
(62.1005 21.139 1.5)
(62.7799 23.248 -1.5)
(62.7799 23.248 1.5)
(63.3118 25.399 -1.5)
(63.3118 25.399 1.5)
(63.6935 27.5817 -1.5)
(63.6935 27.5817 1.5)
(63.9233 29.7855 -1.5)
(63.9233 29.7855 1.5)
(64 32 -1.5)
(64 32 1.5)
)

// edges

114
(
(1 0)
(0 16)
(17 1)
(18 2)
(2 3)
(3 19)
(20 18)
(19 21)
(22 20)
(21 23)
(24 22)
(23 25)
(26 24)
(25 27)
(28 26)
(27 29)
(30 28)
(29 31)
(32 30)
(31 33)
(34 32)
(33 35)
(36 34)
(35 37)
(38 36)
(37 39)
(40 38)
(39 41)
(42 40)
(41 43)
(44 42)
(43 45)
(46 44)
(45 47)
(48 46)
(47 49)
(50 48)
(49 51)
(52 50)
(51 53)
(54 52)
(53 55)
(56 54)
(55 57)
(58 56)
(57 59)
(60 58)
(59 61)
(62 60)
(61 63)
(16 62)
(63 17)
(5 4)
(4 0)
(1 5)
(64 4)
(5 65)
(65 66)
(67 64)
(66 68)
(69 67)
(68 70)
(71 69)
(70 72)
(73 71)
(72 74)
(75 73)
(74 76)
(77 75)
(76 78)
(79 77)
(78 80)
(81 79)
(80 82)
(83 81)
(82 84)
(85 83)
(84 12)
(13 85)
(7 6)
(6 13)
(12 7)
(9 8)
(8 6)
(7 9)
(14 8)
(9 15)
(15 86)
(87 14)
(86 88)
(89 87)
(88 90)
(91 89)
(90 92)
(93 91)
(92 94)
(95 93)
(94 96)
(97 95)
(96 98)
(99 97)
(98 100)
(101 99)
(100 102)
(103 101)
(102 104)
(105 103)
(11 10)
(10 105)
(104 11)
(2 10)
(11 3)
(12 13)
(15 14)
)

// concaveStart mixedStart nonFeatureStart
12 12 16
// internalStart flatStart openStart multipleStart
112 114 114 114
// normals

206
(
(-0 1 0)
(-1 0 0)
(-0 0 1)
(0 1 0)
(0 0 -1)
(-1 0 0)
(0 0 1)
(-1 0 0)
(-0 1 0)
(0 0 -1)
(-0.999417 0.0341408 0)
(0 0 1)
(-0.999417 0.0341408 0)
(-0 0 -1)
(-0.99476 0.102239 0)
(-0 0 1)
(-0.99476 0.102239 0)
(0 0 -1)
(-0.985463 0.169889 0)
(0 0 1)
(-0.985463 0.169889 0)
(0 0 -1)
(-0.971558 0.236804 0)
(0 0 1)
(-0.971558 0.236804 0)
(0 -0 -1)
(-0.953151 0.302494 0)
(-0 0 1)
(-0.953151 0.302494 0)
(0 -0 -1)
(-0.930271 0.366872 0)
(0 0 1)
(-0.930271 0.366872 0)
(0 0 -1)
(-0.903077 0.429479 0)
(0 0 1)
(-0.903077 0.429479 0)
(0 0 -1)
(-0.871642 0.490144 0)
(0 0 1)
(-0.871642 0.490144 0)
(0 0 -1)
(-0.836195 0.548433 0)
(0 0 1)
(-0.836195 0.548433 0)
(0 0 -1)
(-0.796815 0.604223 0)
(0 0 1)
(-0.796815 0.604223 0)
(0 0 -1)
(-0.753738 0.657175 0)
(0 0 1)
(-0.753738 0.657175 0)
(0 0 -1)
(-0.70706 0.707154 0)
(-0 0 1)
(-0.70706 0.707154 0)
(0 0 -1)
(-0.657221 0.753698 0)
(-0 0 1)
(-0.657221 0.753698 0)
(0 0 -1)
(-0.604224 0.796815 0)
(-0 0 1)
(-0.604224 0.796815 0)
(0 0 -1)
(-0.548433 0.836194 0)
(-0 0 1)
(-0.548433 0.836194 0)
(0 0 -1)
(-0.490143 0.871642 0)
(-0 0 1)
(-0.490143 0.871642 0)
(0 0 -1)
(-0.429479 0.903077 0)
(-0 0 1)
(-0.429479 0.903077 0)
(0 0 -1)
(-0.366873 0.930271 0)
(-0 0 1)
(-0.366873 0.930271 0)
(0 0 -1)
(-0.302493 0.953152 0)
(-0 0 1)
(-0.302493 0.953152 0)
(0 0 -1)
(-0.236716 0.971579 0)
(-0 0 1)
(-0.236716 0.971579 0)
(0 0 -1)
(-0.169977 0.985448 0)
(-0 0 1)
(-0.169977 0.985448 0)
(0 0 -1)
(-0.10224 0.99476 0)
(-0 0 1)
(-0.10224 0.99476 0)
(0 0 -1)
(-0.0341408 0.999417 0)
(-0 0 1)
(-0.0341408 0.999417 0)
(0 0 -1)
(-1 0 0)
(0 -1 0)
(0 0 -1)
(-0 -1 -0)
(0 0 1)
(0.0318354 -0.999493 0)
(0 0 -1)
(0.0318354 -0.999493 0)
(0 0 1)
(0.0953792 -0.995441 0)
(0 0 -1)
(0.0953792 -0.995441 0)
(0 0 1)
(0.158537 -0.987353 0)
(0 0 -1)
(0.158537 -0.987353 0)
(0 0 1)
(0.221048 -0.975263 0)
(0 0 -1)
(0.221048 -0.975263 0)
(0 0 1)
(0.282666 -0.959218 0)
(0 0 -1)
(0.282666 -0.959218 0)
(0 0 1)
(0.343135 -0.939286 0)
(0 0 -1)
(0.343135 -0.939286 0)
(0 0 1)
(0.402222 -0.915542 0)
(0 0 -1)
(0.402222 -0.915542 0)
(0 0 1)
(0.459663 -0.888093 0)
(0 0 -1)
(0.459663 -0.888093 0)
(0 0 1)
(0.515258 -0.857035 0)
(0 0 -1)
(0.515258 -0.857035 0)
(0 0 1)
(0.568739 -0.822518 0)
(0 0 -1)
(0.568739 -0.822518 0)
(0 0 1)
(0.619947 -0.784644 0)
(0 0 -1)
(0.619947 -0.784644 0)
(-1 0 0)
(0 0 1)
(-1 0 0)
(0 -1 0)
(0 0 1)
(0 0 -1)
(-0 -1 -0)
(1 0 0)
(0 0 -1)
(1 0 0)
(0.791268 -0.61147 0)
(-0 0 1)
(-0 0 -1)
(0.791268 -0.61147 0)
(0 0 1)
(0.831661 -0.555283 0)
(-0 0 -1)
(0.831661 -0.555283 0)
(0 -0 1)
(0.868096 -0.496396 0)
(0 0 -1)
(0.868096 -0.496396 0)
(0 0 1)
(0.900376 -0.435114 0)
(0 0 -1)
(0.900376 -0.435114 0)
(0 0 1)
(0.928321 -0.371779 0)
(0 0 -1)
(0.928321 -0.371779 0)
(0 -0 1)
(0.95183 -0.306626 0)
(0 0 -1)
(0.95183 -0.306626 0)
(0 0 1)
(0.970761 -0.240049 0)
(0 0 -1)
(0.970761 -0.240049 0)
(0 0 1)
(0.985051 -0.172262 0)
(0 0 -1)
(0.985051 -0.172262 0)
(0 -0 1)
(0.994607 -0.103713 0)
(0 0 -1)
(0.994607 -0.103713 0)
(0 0 1)
(0.999401 -0.0346138 0)
(0 0 -1)
(0.999401 -0.0346138 0)
(0 0 1)
(1 0 0)
(0 1 0)
(0 0 1)
(1 0 0)
(0 0 -1)
)

// normal volume types

206
(
0
0
0
0
0
0
0
0
0
0
0
0
0
0
0
0
0
0
0
0
0
0
0
0
0
0
0
0
0
0
0
0
0
0
0
0
0
0
0
0
0
0
0
0
0
0
0
0
0
0
0
0
0
0
0
0
0
0
0
0
0
0
0
0
0
0
0
0
0
0
0
0
0
0
0
0
0
0
0
0
0
0
0
0
0
0
0
0
0
0
0
0
0
0
0
0
0
0
0
0
0
0
0
0
0
0
0
0
0
0
0
0
0
0
0
0
0
0
0
0
0
0
0
0
0
0
0
0
0
0
0
0
0
0
0
0
0
0
0
0
0
0
0
0
0
0
0
0
0
0
0
0
0
0
0
0
0
0
0
0
0
0
0
0
0
0
0
0
0
0
0
0
0
0
0
0
0
0
0
0
0
0
0
0
0
0
0
0
0
0
0
0
0
0
0
0
0
0
0
0
0
0
0
0
0
0
)

// normalDirections

114
(
2(1 -1)
2(1 -1)
2(1 -1)
2(1 -1)
2(1 -1)
2(1 -1)
2(1 -1)
2(1 -1)
2(1 -1)
2(1 -1)
2(1 -1)
2(1 -1)
2(1 -1)
2(1 -1)
2(1 -1)
2(1 -1)
2(1 -1)
2(1 -1)
2(1 -1)
2(1 -1)
2(1 -1)
2(1 -1)
2(1 -1)
2(1 -1)
2(1 -1)
2(1 -1)
2(1 -1)
2(1 -1)
2(1 -1)
2(1 -1)
2(1 -1)
2(1 -1)
2(1 -1)
2(1 -1)
2(1 -1)
2(1 -1)
2(1 -1)
2(1 -1)
2(1 -1)
2(1 -1)
2(1 -1)
2(1 -1)
2(1 -1)
2(1 -1)
2(1 -1)
2(1 -1)
2(1 -1)
2(1 -1)
2(1 -1)
2(1 -1)
2(1 -1)
2(1 -1)
2(1 -1)
2(1 -1)
2(1 -1)
2(1 -1)
2(1 -1)
2(1 -1)
2(1 -1)
2(1 -1)
2(1 -1)
2(1 -1)
2(1 -1)
2(1 -1)
2(1 -1)
2(1 -1)
2(1 -1)
2(1 -1)
2(1 -1)
2(1 -1)
2(1 -1)
2(1 -1)
2(1 -1)
2(1 -1)
2(1 -1)
2(1 -1)
2(1 -1)
2(1 -1)
2(1 -1)
2(1 -1)
2(1 -1)
2(1 -1)
2(1 -1)
2(1 -1)
2(1 -1)
2(1 -1)
2(1 -1)
2(1 -1)
2(1 -1)
2(1 -1)
2(1 -1)
2(1 -1)
2(1 -1)
2(1 -1)
2(1 -1)
2(1 -1)
2(1 -1)
2(1 -1)
2(1 -1)
2(1 -1)
2(1 -1)
2(1 -1)
2(1 -1)
2(1 -1)
2(1 -1)
2(1 -1)
2(1 -1)
2(1 -1)
2(1 -1)
2(1 -1)
2(1 -1)
2(1 -1)
2(1 -1)
2(1 -1)
)

// edgeNormals

114
(
2(0 1)
2(0 2)
2(3 4)
2(5 6)
2(7 8)
2(7 9)
2(10 11)
2(12 13)
2(14 15)
2(16 17)
2(18 19)
2(20 21)
2(22 23)
2(24 25)
2(26 27)
2(28 29)
2(30 31)
2(32 33)
2(34 35)
2(36 37)
2(38 39)
2(40 41)
2(42 43)
2(44 45)
2(46 47)
2(48 49)
2(50 51)
2(52 53)
2(54 55)
2(56 57)
2(58 59)
2(60 61)
2(62 63)
2(64 65)
2(66 67)
2(68 69)
2(70 71)
2(72 73)
2(74 75)
2(76 77)
2(78 79)
2(80 81)
2(82 83)
2(84 85)
2(86 87)
2(88 89)
2(90 91)
2(92 93)
2(94 95)
2(96 97)
2(98 99)
2(100 101)
2(102 103)
2(102 2)
2(1 104)
2(105 106)
2(103 104)
2(107 108)
2(109 110)
2(111 112)
2(113 114)
2(115 116)
2(117 118)
2(119 120)
2(121 122)
2(123 124)
2(125 126)
2(127 128)
2(129 130)
2(131 132)
2(133 134)
2(135 136)
2(137 138)
2(139 140)
2(141 142)
2(143 144)
2(145 146)
2(147 148)
2(149 151)
2(152 153)
2(152 154)
2(150 155)
2(156 157)
2(156 154)
2(153 158)
2(159 161)
2(157 158)
2(160 162)
2(163 164)
2(165 166)
2(167 168)
2(169 170)
2(171 172)
2(173 174)
2(175 176)
2(177 178)
2(179 180)
2(181 182)
2(183 184)
2(185 186)
2(187 188)
2(189 190)
2(191 192)
2(193 194)
2(195 196)
2(197 198)
2(199 200)
2(201 202)
2(201 203)
2(204 205)
2(8 203)
2(202 9)
2(149 150)
2(159 160)
)

// featurePointNormals

16
(
3(0 1 2)
3(0 1 4)
3(5 6 8)
3(7 8 9)
3(102 103 2)
3(102 103 104)
3(152 153 154)
3(152 153 155)
3(156 157 154)
3(156 157 158)
3(201 202 203)
3(201 202 205)
3(147 148 150)
3(149 151 152)
3(159 161 163)
3(157 158 160)
)

// featurePointEdges

16
(
3(0 53 1)
3(2 54 0)
3(4 110 3)
3(4 111 5)
3(52 55 53)
3(54 56 52)
3(79 83 80)
3(81 84 79)
3(82 85 83)
3(84 86 82)
3(107 110 108)
3(109 111 107)
3(112 81 77)
3(112 80 78)
3(113 88 85)
3(86 87 113)
)

// regionEdges

114
(
0
1
2
3
4
5
6
7
8
9
10
11
12
13
14
15
16
17
18
19
20
21
22
23
24
25
26
27
28
29
30
31
32
33
34
35
36
37
38
39
40
41
42
43
44
45
46
47
48
49
50
51
52
53
54
55
56
57
58
59
60
61
62
63
64
65
66
67
68
69
70
71
72
73
74
75
76
77
112
78
79
80
81
82
83
84
113
85
86
87
88
89
90
91
92
93
94
95
96
97
98
99
100
101
102
103
104
105
106
107
108
109
110
111
)



// ************************************************************************* //
