/*--------------------------------*- C++ -*----------------------------------*\
  =========                 |
  \\      /  F ield         | OpenFOAM: The Open Source CFD Toolbox
   \\    /   O peration     | Website:  https://openfoam.org
    \\  /    A nd           | Version:  7
     \\/     M anipulation  |
\*---------------------------------------------------------------------------*/
FoamFile
{
    version     2.0;
    format      ascii;
    class       extendedFeatureEdgeMesh;
    location    "constant/extendedFeatureEdgeMesh";
    object      elbow_2D.extendedFeatureEdgeMesh;
}
// * * * * * * * * * * * * * * * * * * * * * * * * * * * * * * * * * * * * * //

// points

106
(
(0 16 1.5)
(0 16 -1.5)
(0 0 1.5)
(0 0 -1.5)
(52.6274 -4.43258 1.5)
(52.6274 -4.43258 -1.5)
(56.6274 -4.43258 1.5)
(56.6274 -4.43258 -1.5)
(64 64 1.5)
(64 64 -1.5)
(48 64 1.5)
(48 64 -1.5)
(52.6274 7.53554 -1.5)
(52.6274 7.53554 1.5)
(56.6274 11.5674 1.5)
(56.6274 11.5674 -1.5)
(32 16 1.5)
(32 16 -1.5)
(32 0 1.5)
(32 0 -1.5)
(34.0365 0.0648657 -1.5)
(34.0365 0.0648657 1.5)
(36.0647 0.2592 -1.5)
(36.0647 0.2592 1.5)
(38.0764 0.582214 -1.5)
(38.0764 0.582214 1.5)
(40.0635 1.0326 -1.5)
(40.0635 1.0326 1.5)
(42.0179 1.60853 -1.5)
(42.0179 1.60853 1.5)
(43.9317 2.30767 -1.5)
(43.9317 2.30767 1.5)
(45.7971 3.12719 -1.5)
(45.7971 3.12719 1.5)
(47.6066 4.06376 -1.5)
(47.6066 4.06376 1.5)
(49.3528 5.11359 -1.5)
(49.3528 5.11359 1.5)
(51.0287 6.27241 -1.5)
(51.0287 6.27241 1.5)
(57.9823 13.3207 -1.5)
(57.9823 13.3207 1.5)
(59.2127 15.1635 -1.5)
(59.2127 15.1635 1.5)
(60.3126 17.087 -1.5)
(60.3126 17.087 1.5)
(61.2767 19.082 -1.5)
(61.2767 19.082 1.5)
(62.1005 21.139 -1.5)
(62.1005 21.139 1.5)
(62.7799 23.248 -1.5)
(62.7799 23.248 1.5)
(63.3118 25.399 -1.5)
(63.3118 25.399 1.5)
(63.6935 27.5817 -1.5)
(63.6935 27.5817 1.5)
(63.9233 29.7855 -1.5)
(63.9233 29.7855 1.5)
(64 32 -1.5)
(64 32 1.5)
(48 32 1.5)
(48 32 -1.5)
(47.9627 30.9081 1.5)
(47.9627 30.9081 -1.5)
(47.851 29.8213 1.5)
(47.851 29.8213 -1.5)
(47.6654 28.7447 1.5)
(47.6654 28.7447 -1.5)
(47.4067 27.6833 1.5)
(47.4067 27.6833 -1.5)
(47.0762 26.6419 1.5)
(47.0762 26.6419 -1.5)
(46.6754 25.6256 1.5)
(46.6754 25.6256 -1.5)
(46.2062 24.639 1.5)
(46.2062 24.639 -1.5)
(45.6707 23.6867 1.5)
(45.6707 23.6867 -1.5)
(45.0715 22.7731 1.5)
(45.0715 22.7731 -1.5)
(44.4114 21.9026 1.5)
(44.4114 21.9026 -1.5)
(43.6934 21.0791 1.5)
(43.6934 21.0791 -1.5)
(42.9208 20.3066 1.5)
(42.9208 20.3066 -1.5)
(42.0974 19.5886 1.5)
(42.0974 19.5886 -1.5)
(41.2269 18.9285 1.5)
(41.2269 18.9285 -1.5)
(40.3133 18.3293 1.5)
(40.3133 18.3293 -1.5)
(39.361 17.7938 1.5)
(39.361 17.7938 -1.5)
(38.3744 17.3246 1.5)
(38.3744 17.3246 -1.5)
(37.3581 16.9238 1.5)
(37.3581 16.9238 -1.5)
(36.3167 16.5933 1.5)
(36.3167 16.5933 -1.5)
(35.2553 16.3347 1.5)
(35.2553 16.3347 -1.5)
(34.1787 16.149 1.5)
(34.1787 16.149 -1.5)
(33.0919 16.0373 1.5)
(33.0919 16.0373 -1.5)
)

// edges

114
(
(1 0)
(0 16)
(17 1)
(3 2)
(2 0)
(1 3)
(18 2)
(3 19)
(19 20)
(21 18)
(20 22)
(23 21)
(22 24)
(25 23)
(24 26)
(27 25)
(26 28)
(29 27)
(28 30)
(31 29)
(30 32)
(33 31)
(32 34)
(35 33)
(34 36)
(37 35)
(36 38)
(39 37)
(38 12)
(13 39)
(5 4)
(4 13)
(12 5)
(7 6)
(6 4)
(5 7)
(14 6)
(7 15)
(15 40)
(41 14)
(40 42)
(43 41)
(42 44)
(45 43)
(44 46)
(47 45)
(46 48)
(49 47)
(48 50)
(51 49)
(50 52)
(53 51)
(52 54)
(55 53)
(54 56)
(57 55)
(56 58)
(59 57)
(9 8)
(8 59)
(58 9)
(11 10)
(10 8)
(9 11)
(60 10)
(11 61)
(62 60)
(61 63)
(64 62)
(63 65)
(66 64)
(65 67)
(68 66)
(67 69)
(70 68)
(69 71)
(72 70)
(71 73)
(74 72)
(73 75)
(76 74)
(75 77)
(78 76)
(77 79)
(80 78)
(79 81)
(82 80)
(81 83)
(84 82)
(83 85)
(86 84)
(85 87)
(88 86)
(87 89)
(90 88)
(89 91)
(92 90)
(91 93)
(94 92)
(93 95)
(96 94)
(95 97)
(98 96)
(97 99)
(100 98)
(99 101)
(102 100)
(101 103)
(104 102)
(103 105)
(16 104)
(105 17)
(12 13)
(15 14)
)

// concaveStart mixedStart nonFeatureStart
12 12 16
// internalStart flatStart openStart multipleStart
112 114 114 114
// normals

206
(
(-0 1 0)
(-1 0 0)
(-0 0 1)
(0 1 0)
(0 0 -1)
(-1 0 0)
(0 -1 0)
(0 0 -1)
(-0 -1 -0)
(0 0 1)
(0.0318354 -0.999493 0)
(0 0 -1)
(0.0318354 -0.999493 0)
(0 0 1)
(0.0953792 -0.995441 0)
(0 0 -1)
(0.0953792 -0.995441 0)
(0 0 1)
(0.158537 -0.987353 0)
(0 0 -1)
(0.158537 -0.987353 0)
(0 0 1)
(0.221048 -0.975263 0)
(0 0 -1)
(0.221048 -0.975263 0)
(0 0 1)
(0.282666 -0.959218 0)
(0 0 -1)
(0.282666 -0.959218 0)
(0 0 1)
(0.343135 -0.939286 0)
(0 0 -1)
(0.343135 -0.939286 0)
(0 0 1)
(0.402222 -0.915542 0)
(0 0 -1)
(0.402222 -0.915542 0)
(0 0 1)
(0.459663 -0.888093 0)
(0 0 -1)
(0.459663 -0.888093 0)
(0 0 1)
(0.515258 -0.857035 0)
(0 0 -1)
(0.515258 -0.857035 0)
(0 0 1)
(0.568739 -0.822518 0)
(0 0 -1)
(0.568739 -0.822518 0)
(0 0 1)
(0.619947 -0.784644 0)
(0 0 -1)
(0.619947 -0.784644 0)
(0 0 1)
(-1 0 0)
(0 -1 0)
(0 0 1)
(-1 0 0)
(0 0 -1)
(-0 -1 -0)
(1 0 0)
(0 0 -1)
(1 0 0)
(-0 0 1)
(0.791268 -0.61147 0)
(-0 0 -1)
(0.791268 -0.61147 0)
(0 0 1)
(0.831661 -0.555283 0)
(-0 0 -1)
(0.831661 -0.555283 0)
(0 -0 1)
(0.868096 -0.496396 0)
(0 0 -1)
(0.868096 -0.496396 0)
(0 0 1)
(0.900376 -0.435114 0)
(0 0 -1)
(0.900376 -0.435114 0)
(0 0 1)
(0.928321 -0.371779 0)
(0 0 -1)
(0.928321 -0.371779 0)
(0 -0 1)
(0.95183 -0.306626 0)
(0 0 -1)
(0.95183 -0.306626 0)
(0 0 1)
(0.970761 -0.240049 0)
(0 0 -1)
(0.970761 -0.240049 0)
(0 0 1)
(0.985051 -0.172262 0)
(0 0 -1)
(0.985051 -0.172262 0)
(0 -0 1)
(0.994607 -0.103713 0)
(0 0 -1)
(0.994607 -0.103713 0)
(0 0 1)
(0.999401 -0.0346138 0)
(0 0 -1)
(0.999401 -0.0346138 0)
(0 0 1)
(1 0 0)
(0 1 0)
(0 0 1)
(1 0 0)
(0 0 -1)
(-0 1 0)
(-1 0 0)
(0 0 -1)
(-1 0 0)
(0 0 1)
(-0.999417 0.0341408 0)
(0 0 1)
(-0.999417 0.0341408 0)
(-0 0 -1)
(-0.99476 0.102239 0)
(-0 0 1)
(-0.99476 0.102239 0)
(0 0 -1)
(-0.985463 0.169889 0)
(0 0 1)
(-0.985463 0.169889 0)
(0 0 -1)
(-0.971558 0.236804 0)
(0 0 1)
(-0.971558 0.236804 0)
(0 -0 -1)
(-0.953151 0.302494 0)
(-0 0 1)
(-0.953151 0.302494 0)
(0 -0 -1)
(-0.930271 0.366872 0)
(0 0 1)
(-0.930271 0.366872 0)
(0 0 -1)
(-0.903077 0.429479 0)
(0 0 1)
(-0.903077 0.429479 0)
(0 0 -1)
(-0.871642 0.490144 0)
(0 0 1)
(-0.871642 0.490144 0)
(0 0 -1)
(-0.836195 0.548433 0)
(0 0 1)
(-0.836195 0.548433 0)
(0 0 -1)
(-0.796815 0.604223 0)
(0 0 1)
(-0.796815 0.604223 0)
(0 0 -1)
(-0.753738 0.657175 0)
(0 0 1)
(-0.753738 0.657175 0)
(0 0 -1)
(-0.70706 0.707154 0)
(-0 0 1)
(-0.70706 0.707154 0)
(0 0 -1)
(-0.657221 0.753698 0)
(-0 0 1)
(-0.657221 0.753698 0)
(0 0 -1)
(-0.604224 0.796815 0)
(-0 0 1)
(-0.604224 0.796815 0)
(0 0 -1)
(-0.548433 0.836194 0)
(-0 0 1)
(-0.548433 0.836194 0)
(0 0 -1)
(-0.490143 0.871642 0)
(-0 0 1)
(-0.490143 0.871642 0)
(0 0 -1)
(-0.429479 0.903077 0)
(-0 0 1)
(-0.429479 0.903077 0)
(0 0 -1)
(-0.366873 0.930271 0)
(-0 0 1)
(-0.366873 0.930271 0)
(0 0 -1)
(-0.302493 0.953152 0)
(-0 0 1)
(-0.302493 0.953152 0)
(0 0 -1)
(-0.236716 0.971579 0)
(-0 0 1)
(-0.236716 0.971579 0)
(0 0 -1)
(-0.169977 0.985448 0)
(-0 0 1)
(-0.169977 0.985448 0)
(0 0 -1)
(-0.10224 0.99476 0)
(-0 0 1)
(-0.10224 0.99476 0)
(0 0 -1)
(-0.0341408 0.999417 0)
(-0 0 1)
(-0.0341408 0.999417 0)
(0 0 -1)
)

// normal volume types

206
(
0
0
0
0
0
0
0
0
0
0
0
0
0
0
0
0
0
0
0
0
0
0
0
0
0
0
0
0
0
0
0
0
0
0
0
0
0
0
0
0
0
0
0
0
0
0
0
0
0
0
0
0
0
0
0
0
0
0
0
0
0
0
0
0
0
0
0
0
0
0
0
0
0
0
0
0
0
0
0
0
0
0
0
0
0
0
0
0
0
0
0
0
0
0
0
0
0
0
0
0
0
0
0
0
0
0
0
0
0
0
0
0
0
0
0
0
0
0
0
0
0
0
0
0
0
0
0
0
0
0
0
0
0
0
0
0
0
0
0
0
0
0
0
0
0
0
0
0
0
0
0
0
0
0
0
0
0
0
0
0
0
0
0
0
0
0
0
0
0
0
0
0
0
0
0
0
0
0
0
0
0
0
0
0
0
0
0
0
0
0
0
0
0
0
0
0
0
0
0
0
0
0
0
0
0
0
)

// normalDirections

114
(
2(1 -1)
2(1 -1)
2(1 -1)
2(1 -1)
2(1 -1)
2(1 -1)
2(1 -1)
2(1 -1)
2(1 -1)
2(1 -1)
2(1 -1)
2(1 -1)
2(1 -1)
2(1 -1)
2(1 -1)
2(1 -1)
2(1 -1)
2(1 -1)
2(1 -1)
2(1 -1)
2(1 -1)
2(1 -1)
2(1 -1)
2(1 -1)
2(1 -1)
2(1 -1)
2(1 -1)
2(1 -1)
2(1 -1)
2(1 -1)
2(1 -1)
2(1 -1)
2(1 -1)
2(1 -1)
2(1 -1)
2(1 -1)
2(1 -1)
2(1 -1)
2(1 -1)
2(1 -1)
2(1 -1)
2(1 -1)
2(1 -1)
2(1 -1)
2(1 -1)
2(1 -1)
2(1 -1)
2(1 -1)
2(1 -1)
2(1 -1)
2(1 -1)
2(1 -1)
2(1 -1)
2(1 -1)
2(1 -1)
2(1 -1)
2(1 -1)
2(1 -1)
2(1 -1)
2(1 -1)
2(1 -1)
2(1 -1)
2(1 -1)
2(1 -1)
2(1 -1)
2(1 -1)
2(1 -1)
2(1 -1)
2(1 -1)
2(1 -1)
2(1 -1)
2(1 -1)
2(1 -1)
2(1 -1)
2(1 -1)
2(1 -1)
2(1 -1)
2(1 -1)
2(1 -1)
2(1 -1)
2(1 -1)
2(1 -1)
2(1 -1)
2(1 -1)
2(1 -1)
2(1 -1)
2(1 -1)
2(1 -1)
2(1 -1)
2(1 -1)
2(1 -1)
2(1 -1)
2(1 -1)
2(1 -1)
2(1 -1)
2(1 -1)
2(1 -1)
2(1 -1)
2(1 -1)
2(1 -1)
2(1 -1)
2(1 -1)
2(1 -1)
2(1 -1)
2(1 -1)
2(1 -1)
2(1 -1)
2(1 -1)
2(1 -1)
2(1 -1)
2(1 -1)
2(1 -1)
2(1 -1)
2(1 -1)
)

// edgeNormals

114
(
2(0 1)
2(0 2)
2(3 4)
2(5 6)
2(5 2)
2(1 7)
2(8 9)
2(6 7)
2(10 11)
2(12 13)
2(14 15)
2(16 17)
2(18 19)
2(20 21)
2(22 23)
2(24 25)
2(26 27)
2(28 29)
2(30 31)
2(32 33)
2(34 35)
2(36 37)
2(38 39)
2(40 41)
2(42 43)
2(44 45)
2(46 47)
2(48 49)
2(50 51)
2(52 53)
2(54 55)
2(54 56)
2(57 58)
2(59 60)
2(59 56)
2(55 61)
2(62 63)
2(60 61)
2(64 65)
2(66 67)
2(68 69)
2(70 71)
2(72 73)
2(74 75)
2(76 77)
2(78 79)
2(80 81)
2(82 83)
2(84 85)
2(86 87)
2(88 89)
2(90 91)
2(92 93)
2(94 95)
2(96 97)
2(98 99)
2(100 101)
2(102 103)
2(104 105)
2(104 106)
2(107 108)
2(109 110)
2(109 106)
2(105 111)
2(112 113)
2(110 111)
2(114 115)
2(116 117)
2(118 119)
2(120 121)
2(122 123)
2(124 125)
2(126 127)
2(128 129)
2(130 131)
2(132 133)
2(134 135)
2(136 137)
2(138 139)
2(140 141)
2(142 143)
2(144 145)
2(146 147)
2(148 149)
2(150 151)
2(152 153)
2(154 155)
2(156 157)
2(158 159)
2(160 161)
2(162 163)
2(164 165)
2(166 167)
2(168 169)
2(170 171)
2(172 173)
2(174 175)
2(176 177)
2(178 179)
2(180 181)
2(182 183)
2(184 185)
2(186 187)
2(188 189)
2(190 191)
2(192 193)
2(194 195)
2(196 197)
2(198 199)
2(200 201)
2(202 203)
2(204 205)
2(52 57)
2(62 64)
)

// featurePointNormals

16
(
3(0 1 2)
3(0 1 4)
3(5 6 2)
3(5 6 7)
3(54 55 56)
3(54 55 58)
3(59 60 56)
3(59 60 61)
3(104 105 106)
3(104 105 108)
3(109 110 106)
3(109 110 111)
3(50 51 57)
3(52 53 54)
3(62 63 66)
3(60 61 64)
)

// featurePointEdges

16
(
3(0 4 1)
3(2 5 0)
3(3 6 4)
3(5 7 3)
3(30 34 31)
3(32 35 30)
3(33 36 34)
3(35 37 33)
3(58 62 59)
3(60 63 58)
3(61 64 62)
3(63 65 61)
3(112 32 28)
3(112 31 29)
3(113 39 36)
3(37 38 113)
)

// regionEdges
0()


// ************************************************************************* //
