/*--------------------------------*- C++ -*----------------------------------*\
  =========                 |
  \\      /  F ield         | OpenFOAM: The Open Source CFD Toolbox
   \\    /   O peration     | Website:  https://openfoam.org
    \\  /    A nd           | Version:  12
     \\/     M anipulation  |
\*---------------------------------------------------------------------------*/
FoamFile
{
    format      ascii;
    class       polyBoundaryMesh;
    location    "constant/polyMesh";
    object      boundary;
}
// * * * * * * * * * * * * * * * * * * * * * * * * * * * * * * * * * * * * * //

6
(
    inlet
    {
        type            patch;
        nFaces          30;
        startFace       13275;
    }
    outlet
    {
        type            patch;
        nFaces          30;
        startFace       13305;
    }
    top
    {
        type            wall;
        inGroups        List<word> 1(wall);
        nFaces          135;
        startFace       13335;
    }
    bottom
    {
        type            wall;
        inGroups        List<word> 1(wall);
        nFaces          135;
        startFace       13470;
    }
    obstacle
    {
        type            wall;
        inGroups        List<word> 1(wall);
        nFaces          120;
        startFace       13605;
    }
    frontAndBack
    {
        type            empty;
        inGroups        List<word> 1(empty);
        nFaces          13500;
        startFace       13725;
    }
)

// ************************************************************************* //
