/*--------------------------------*- C++ -*----------------------------------*\
  =========                 |
  \\      /  F ield         | OpenFOAM: The Open Source CFD Toolbox
   \\    /   O peration     | Website:  https://openfoam.org
    \\  /    A nd           | Version:  12
     \\/     M anipulation  |
\*---------------------------------------------------------------------------*/
FoamFile
{
    format      ascii;
    class       polyBoundaryMesh;
    location    "constant/polyMesh";
    object      boundary;
}
// * * * * * * * * * * * * * * * * * * * * * * * * * * * * * * * * * * * * * //

12
(
    yMin
    {
        type            patch;
        nFaces          1014;
        startFace       132397;
    }
    yMax
    {
        type            patch;
        nFaces          1014;
        startFace       133411;
    }
    zMin
    {
        type            patch;
        nFaces          11066;
        startFace       134425;
    }
    zMax
    {
        type            patch;
        nFaces          11066;
        startFace       145491;
    }
    inlet
    {
        type            patch;
        nFaces          40;
        startFace       156557;
    }
    outlet
    {
        type            patch;
        nFaces          40;
        startFace       156597;
    }
    pipe-0
    {
        type            wall;
        inGroups        List<word> 1(wall);
        nFaces          608;
        startFace       156637;
    }
    pipe-1
    {
        type            wall;
        inGroups        List<word> 1(wall);
        nFaces          624;
        startFace       157245;
    }
    pipe-2
    {
        type            wall;
        inGroups        List<word> 1(wall);
        nFaces          624;
        startFace       157869;
    }
    pipe-5
    {
        type            wall;
        inGroups        List<word> 1(wall);
        nFaces          624;
        startFace       158493;
    }
    pipe-3
    {
        type            wall;
        inGroups        List<word> 1(wall);
        nFaces          608;
        startFace       159117;
    }
    pipe-4
    {
        type            wall;
        inGroups        List<word> 1(wall);
        nFaces          624;
        startFace       159725;
    }
)

// ************************************************************************* //
