/*--------------------------------*- C++ -*----------------------------------*\
  =========                 |
  \\      /  F ield         | OpenFOAM: The Open Source CFD Toolbox
   \\    /   O peration     | Website:  https://openfoam.org
    \\  /    A nd           | Version:  12
     \\/     M anipulation  |
\*---------------------------------------------------------------------------*/
FoamFile
{
    format      ascii;
    class       featureEdgeMesh;
    location    "constant/triSurface";
    object      domain_a3_b1.eMesh;
}
// * * * * * * * * * * * * * * * * * * * * * * * * * * * * * * * * * * * * * //


// points:

2436
(
(0.0225 0.0225 0.002)
(0.0225 0.0225 -0.002)
(0.5175 0.0225 -0.002)
(0.5175 0.0225 0.002)
(0.0075 0.0225 0.002)
(-0.0075 0.0225 0.002)
(-0.0075 0.0225 -0.002)
(0.0075 0.0225 -0.002)
(-0.0375 -0.0225 0.002)
(-0.0375 -0.0225 -0.002)
(-0.0225 -0.0225 0.002)
(-0.0225 -0.0225 -0.002)
(0.0075 -0.0225 -0.002)
(-0.0075 -0.0225 -0.002)
(-0.0075 -0.0225 0.002)
(0.0075 -0.0225 0.002)
(-0.0375 0.0225 -0.002)
(-0.0375 0.0225 0.002)
(-0.0225 0.0225 -0.002)
(-0.0225 0.0225 0.002)
(-0.0525 -0.0225 -0.002)
(-0.1425 -0.0225 0.002)
(-0.1425 -0.0225 -0.002)
(-0.0525 -0.0225 0.002)
(-0.0525 0.0225 0.002)
(-0.1425 0.0225 -0.002)
(-0.1425 0.0225 0.002)
(-0.0525 0.0225 -0.002)
(0.0225 -0.0225 -0.002)
(0.0225 -0.0225 0.002)
(0.5175 -0.0225 0.002)
(0.5175 -0.0225 -0.002)
(0.0232021 0.0225 0.002)
(0.0225 0.0225 8.67362e-19)
(0.0232021 0.0225 -0.002)
(0.0260106 0.0225 -0.002)
(0.0253125 0.0225 -0.002)
(0.0253125 0.0225 0.002)
(0.0260106 0.0225 0.002)
(0.0288191 0.0225 -0.002)
(0.028125 0.0225 -0.002)
(0.028125 0.0225 0.002)
(0.0288191 0.0225 0.002)
(0.0316277 0.0225 -0.002)
(0.0309375 0.0225 -0.002)
(0.0309375 0.0225 0.002)
(0.0316277 0.0225 0.002)
(0.0344362 0.0225 -0.002)
(0.03375 0.0225 -0.002)
(0.03375 0.0225 0.002)
(0.0344362 0.0225 0.002)
(0.0372447 0.0225 -0.002)
(0.0365625 0.0225 -0.002)
(0.0365625 0.0225 0.002)
(0.0372447 0.0225 0.002)
(0.0400532 0.0225 -0.002)
(0.039375 0.0225 -0.002)
(0.039375 0.0225 0.002)
(0.0400532 0.0225 0.002)
(0.0428617 0.0225 -0.002)
(0.0421875 0.0225 -0.002)
(0.0421875 0.0225 0.002)
(0.0428617 0.0225 0.002)
(0.0456702 0.0225 -0.002)
(0.045 0.0225 -0.002)
(0.045 0.0225 0.002)
(0.0456702 0.0225 0.002)
(0.0484787 0.0225 -0.002)
(0.0478125 0.0225 -0.002)
(0.0478125 0.0225 0.002)
(0.0484787 0.0225 0.002)
(0.0512872 0.0225 -0.002)
(0.050625 0.0225 -0.002)
(0.050625 0.0225 0.002)
(0.0512872 0.0225 0.002)
(0.0540957 0.0225 -0.002)
(0.0534375 0.0225 -0.002)
(0.0534375 0.0225 0.002)
(0.0540957 0.0225 0.002)
(0.0569043 0.0225 -0.002)
(0.05625 0.0225 -0.002)
(0.05625 0.0225 0.002)
(0.0569043 0.0225 0.002)
(0.0597128 0.0225 -0.002)
(0.0590625 0.0225 -0.002)
(0.0590625 0.0225 0.002)
(0.0597128 0.0225 0.002)
(0.0625213 0.0225 -0.002)
(0.061875 0.0225 -0.002)
(0.061875 0.0225 0.002)
(0.0625213 0.0225 0.002)
(0.0653298 0.0225 -0.002)
(0.0646875 0.0225 -0.002)
(0.0646875 0.0225 0.002)
(0.0653298 0.0225 0.002)
(0.0681383 0.0225 -0.002)
(0.0675 0.0225 -0.002)
(0.0675 0.0225 0.002)
(0.0681383 0.0225 0.002)
(0.0709468 0.0225 -0.002)
(0.0703125 0.0225 -0.002)
(0.0703125 0.0225 0.002)
(0.0709468 0.0225 0.002)
(0.0737553 0.0225 -0.002)
(0.073125 0.0225 -0.002)
(0.073125 0.0225 0.002)
(0.0737553 0.0225 0.002)
(0.0765638 0.0225 -0.002)
(0.0759375 0.0225 -0.002)
(0.0759375 0.0225 0.002)
(0.0765638 0.0225 0.002)
(0.0793723 0.0225 -0.002)
(0.07875 0.0225 -0.002)
(0.07875 0.0225 0.002)
(0.0793723 0.0225 0.002)
(0.0821809 0.0225 -0.002)
(0.0815625 0.0225 -0.002)
(0.0815625 0.0225 0.002)
(0.0821809 0.0225 0.002)
(0.0849894 0.0225 -0.002)
(0.084375 0.0225 -0.002)
(0.084375 0.0225 0.002)
(0.0849894 0.0225 0.002)
(0.0877979 0.0225 -0.002)
(0.0871875 0.0225 -0.002)
(0.0871875 0.0225 0.002)
(0.0877979 0.0225 0.002)
(0.0906064 0.0225 -0.002)
(0.09 0.0225 -0.002)
(0.09 0.0225 0.002)
(0.0906064 0.0225 0.002)
(0.0934149 0.0225 -0.002)
(0.0928125 0.0225 -0.002)
(0.0928125 0.0225 0.002)
(0.0934149 0.0225 0.002)
(0.0962234 0.0225 -0.002)
(0.095625 0.0225 -0.002)
(0.095625 0.0225 0.002)
(0.0962234 0.0225 0.002)
(0.0990319 0.0225 -0.002)
(0.0984375 0.0225 -0.002)
(0.0984375 0.0225 0.002)
(0.0990319 0.0225 0.002)
(0.10184 0.0225 -0.002)
(0.10125 0.0225 -0.002)
(0.10125 0.0225 0.002)
(0.10184 0.0225 0.002)
(0.104649 0.0225 -0.002)
(0.104062 0.0225 -0.002)
(0.104062 0.0225 0.002)
(0.104649 0.0225 0.002)
(0.107457 0.0225 -0.002)
(0.106875 0.0225 -0.002)
(0.106875 0.0225 0.002)
(0.107457 0.0225 0.002)
(0.110266 0.0225 -0.002)
(0.109687 0.0225 -0.002)
(0.109687 0.0225 0.002)
(0.110266 0.0225 0.002)
(0.113074 0.0225 -0.002)
(0.1125 0.0225 -0.002)
(0.1125 0.0225 0.002)
(0.113074 0.0225 0.002)
(0.115883 0.0225 -0.002)
(0.115313 0.0225 -0.002)
(0.115313 0.0225 0.002)
(0.115883 0.0225 0.002)
(0.118691 0.0225 -0.002)
(0.118125 0.0225 -0.002)
(0.118125 0.0225 0.002)
(0.118691 0.0225 0.002)
(0.1215 0.0225 -0.002)
(0.120937 0.0225 -0.002)
(0.120937 0.0225 0.002)
(0.1215 0.0225 0.002)
(0.124308 0.0225 -0.002)
(0.12375 0.0225 -0.002)
(0.12375 0.0225 0.002)
(0.124308 0.0225 0.002)
(0.127117 0.0225 -0.002)
(0.126563 0.0225 -0.002)
(0.126563 0.0225 0.002)
(0.127117 0.0225 0.002)
(0.129926 0.0225 -0.002)
(0.129375 0.0225 -0.002)
(0.129375 0.0225 0.002)
(0.129926 0.0225 0.002)
(0.132734 0.0225 -0.002)
(0.132188 0.0225 -0.002)
(0.132188 0.0225 0.002)
(0.132734 0.0225 0.002)
(0.135543 0.0225 -0.002)
(0.135 0.0225 -0.002)
(0.135 0.0225 0.002)
(0.135543 0.0225 0.002)
(0.138351 0.0225 -0.002)
(0.137812 0.0225 -0.002)
(0.137812 0.0225 0.002)
(0.138351 0.0225 0.002)
(0.14116 0.0225 -0.002)
(0.140625 0.0225 -0.002)
(0.140625 0.0225 0.002)
(0.14116 0.0225 0.002)
(0.143968 0.0225 -0.002)
(0.143438 0.0225 -0.002)
(0.143438 0.0225 0.002)
(0.143968 0.0225 0.002)
(0.146777 0.0225 -0.002)
(0.14625 0.0225 -0.002)
(0.14625 0.0225 0.002)
(0.146777 0.0225 0.002)
(0.149585 0.0225 -0.002)
(0.149062 0.0225 -0.002)
(0.149062 0.0225 0.002)
(0.149585 0.0225 0.002)
(0.152394 0.0225 -0.002)
(0.151875 0.0225 -0.002)
(0.151875 0.0225 0.002)
(0.152394 0.0225 0.002)
(0.155202 0.0225 -0.002)
(0.154687 0.0225 -0.002)
(0.154687 0.0225 0.002)
(0.155202 0.0225 0.002)
(0.158011 0.0225 -0.002)
(0.1575 0.0225 -0.002)
(0.1575 0.0225 0.002)
(0.158011 0.0225 0.002)
(0.160819 0.0225 -0.002)
(0.160313 0.0225 -0.002)
(0.160313 0.0225 0.002)
(0.160819 0.0225 0.002)
(0.163628 0.0225 -0.002)
(0.163125 0.0225 -0.002)
(0.163125 0.0225 0.002)
(0.163628 0.0225 0.002)
(0.166436 0.0225 -0.002)
(0.165937 0.0225 -0.002)
(0.165937 0.0225 0.002)
(0.166436 0.0225 0.002)
(0.169245 0.0225 -0.002)
(0.16875 0.0225 -0.002)
(0.16875 0.0225 0.002)
(0.169245 0.0225 0.002)
(0.172053 0.0225 -0.002)
(0.171562 0.0225 -0.002)
(0.171562 0.0225 0.002)
(0.172053 0.0225 0.002)
(0.174862 0.0225 -0.002)
(0.174375 0.0225 -0.002)
(0.174375 0.0225 0.002)
(0.174862 0.0225 0.002)
(0.17767 0.0225 -0.002)
(0.177188 0.0225 -0.002)
(0.177188 0.0225 0.002)
(0.17767 0.0225 0.002)
(0.180479 0.0225 -0.002)
(0.18 0.0225 -0.002)
(0.18 0.0225 0.002)
(0.180479 0.0225 0.002)
(0.183287 0.0225 -0.002)
(0.182812 0.0225 -0.002)
(0.182812 0.0225 0.002)
(0.183287 0.0225 0.002)
(0.186096 0.0225 -0.002)
(0.185625 0.0225 -0.002)
(0.185625 0.0225 0.002)
(0.186096 0.0225 0.002)
(0.188904 0.0225 -0.002)
(0.188438 0.0225 -0.002)
(0.188438 0.0225 0.002)
(0.188904 0.0225 0.002)
(0.191713 0.0225 -0.002)
(0.19125 0.0225 -0.002)
(0.19125 0.0225 0.002)
(0.191713 0.0225 0.002)
(0.194521 0.0225 -0.002)
(0.194063 0.0225 -0.002)
(0.194063 0.0225 0.002)
(0.194521 0.0225 0.002)
(0.19733 0.0225 -0.002)
(0.196875 0.0225 -0.002)
(0.196875 0.0225 0.002)
(0.19733 0.0225 0.002)
(0.200138 0.0225 -0.002)
(0.199687 0.0225 -0.002)
(0.199687 0.0225 0.002)
(0.200138 0.0225 0.002)
(0.202947 0.0225 -0.002)
(0.2025 0.0225 -0.002)
(0.2025 0.0225 0.002)
(0.202947 0.0225 0.002)
(0.205755 0.0225 -0.002)
(0.205313 0.0225 -0.002)
(0.205313 0.0225 0.002)
(0.205755 0.0225 0.002)
(0.208564 0.0225 -0.002)
(0.208125 0.0225 -0.002)
(0.208125 0.0225 0.002)
(0.208564 0.0225 0.002)
(0.211372 0.0225 -0.002)
(0.210938 0.0225 -0.002)
(0.210938 0.0225 0.002)
(0.211372 0.0225 0.002)
(0.214181 0.0225 -0.002)
(0.21375 0.0225 -0.002)
(0.21375 0.0225 0.002)
(0.214181 0.0225 0.002)
(0.216989 0.0225 -0.002)
(0.216562 0.0225 -0.002)
(0.216562 0.0225 0.002)
(0.216989 0.0225 0.002)
(0.219798 0.0225 -0.002)
(0.219375 0.0225 -0.002)
(0.219375 0.0225 0.002)
(0.219798 0.0225 0.002)
(0.222606 0.0225 -0.002)
(0.222188 0.0225 -0.002)
(0.222188 0.0225 0.002)
(0.222606 0.0225 0.002)
(0.225415 0.0225 -0.002)
(0.225 0.0225 -0.002)
(0.225 0.0225 0.002)
(0.225415 0.0225 0.002)
(0.228223 0.0225 -0.002)
(0.227812 0.0225 -0.002)
(0.227812 0.0225 0.002)
(0.228223 0.0225 0.002)
(0.231032 0.0225 -0.002)
(0.230625 0.0225 -0.002)
(0.230625 0.0225 0.002)
(0.231032 0.0225 0.002)
(0.23384 0.0225 -0.002)
(0.233437 0.0225 -0.002)
(0.233437 0.0225 0.002)
(0.23384 0.0225 0.002)
(0.236649 0.0225 -0.002)
(0.23625 0.0225 -0.002)
(0.23625 0.0225 0.002)
(0.236649 0.0225 0.002)
(0.239457 0.0225 -0.002)
(0.239063 0.0225 -0.002)
(0.239063 0.0225 0.002)
(0.239457 0.0225 0.002)
(0.242266 0.0225 -0.002)
(0.241875 0.0225 -0.002)
(0.241875 0.0225 0.002)
(0.242266 0.0225 0.002)
(0.245074 0.0225 -0.002)
(0.244687 0.0225 -0.002)
(0.244687 0.0225 0.002)
(0.245074 0.0225 0.002)
(0.247883 0.0225 -0.002)
(0.2475 0.0225 -0.002)
(0.2475 0.0225 0.002)
(0.247883 0.0225 0.002)
(0.250692 0.0225 -0.002)
(0.250313 0.0225 -0.002)
(0.250313 0.0225 0.002)
(0.250692 0.0225 0.002)
(0.2535 0.0225 -0.002)
(0.253125 0.0225 -0.002)
(0.253125 0.0225 0.002)
(0.2535 0.0225 0.002)
(0.256308 0.0225 -0.002)
(0.255937 0.0225 -0.002)
(0.255937 0.0225 0.002)
(0.256308 0.0225 0.002)
(0.259117 0.0225 -0.002)
(0.25875 0.0225 -0.002)
(0.25875 0.0225 0.002)
(0.259117 0.0225 0.002)
(0.261925 0.0225 -0.002)
(0.261562 0.0225 -0.002)
(0.261562 0.0225 0.002)
(0.261925 0.0225 0.002)
(0.264734 0.0225 -0.002)
(0.264375 0.0225 -0.002)
(0.264375 0.0225 0.002)
(0.264734 0.0225 0.002)
(0.267543 0.0225 -0.002)
(0.267188 0.0225 -0.002)
(0.267188 0.0225 0.002)
(0.267543 0.0225 0.002)
(0.270351 0.0225 -0.002)
(0.27 0.0225 -0.002)
(0.27 0.0225 0.002)
(0.270351 0.0225 0.002)
(0.27316 0.0225 -0.002)
(0.272812 0.0225 -0.002)
(0.272812 0.0225 0.002)
(0.27316 0.0225 0.002)
(0.275968 0.0225 -0.002)
(0.275625 0.0225 -0.002)
(0.275625 0.0225 0.002)
(0.275968 0.0225 0.002)
(0.278777 0.0225 -0.002)
(0.278437 0.0225 -0.002)
(0.278437 0.0225 0.002)
(0.278777 0.0225 0.002)
(0.281585 0.0225 -0.002)
(0.28125 0.0225 -0.002)
(0.28125 0.0225 0.002)
(0.281585 0.0225 0.002)
(0.284394 0.0225 -0.002)
(0.284063 0.0225 -0.002)
(0.284063 0.0225 0.002)
(0.284394 0.0225 0.002)
(0.287202 0.0225 -0.002)
(0.286875 0.0225 -0.002)
(0.286875 0.0225 0.002)
(0.287202 0.0225 0.002)
(0.290011 0.0225 -0.002)
(0.289688 0.0225 -0.002)
(0.289688 0.0225 0.002)
(0.290011 0.0225 0.002)
(0.292819 0.0225 -0.002)
(0.2925 0.0225 -0.002)
(0.2925 0.0225 0.002)
(0.292819 0.0225 0.002)
(0.295628 0.0225 -0.002)
(0.295312 0.0225 -0.002)
(0.295312 0.0225 0.002)
(0.295628 0.0225 0.002)
(0.298436 0.0225 -0.002)
(0.298125 0.0225 -0.002)
(0.298125 0.0225 0.002)
(0.298436 0.0225 0.002)
(0.301245 0.0225 -0.002)
(0.300938 0.0225 -0.002)
(0.300938 0.0225 0.002)
(0.301245 0.0225 0.002)
(0.304053 0.0225 -0.002)
(0.30375 0.0225 -0.002)
(0.30375 0.0225 0.002)
(0.304053 0.0225 0.002)
(0.306862 0.0225 -0.002)
(0.306563 0.0225 -0.002)
(0.306563 0.0225 0.002)
(0.306862 0.0225 0.002)
(0.30967 0.0225 -0.002)
(0.309375 0.0225 -0.002)
(0.309375 0.0225 0.002)
(0.30967 0.0225 0.002)
(0.312479 0.0225 -0.002)
(0.312187 0.0225 -0.002)
(0.312187 0.0225 0.002)
(0.312479 0.0225 0.002)
(0.315287 0.0225 -0.002)
(0.315 0.0225 -0.002)
(0.315 0.0225 0.002)
(0.315287 0.0225 0.002)
(0.318096 0.0225 -0.002)
(0.317813 0.0225 -0.002)
(0.317813 0.0225 0.002)
(0.318096 0.0225 0.002)
(0.320904 0.0225 -0.002)
(0.320625 0.0225 -0.002)
(0.320625 0.0225 0.002)
(0.320904 0.0225 0.002)
(0.323713 0.0225 -0.002)
(0.323438 0.0225 -0.002)
(0.323438 0.0225 0.002)
(0.323713 0.0225 0.002)
(0.326521 0.0225 -0.002)
(0.32625 0.0225 -0.002)
(0.32625 0.0225 0.002)
(0.326521 0.0225 0.002)
(0.32933 0.0225 -0.002)
(0.329062 0.0225 -0.002)
(0.329062 0.0225 0.002)
(0.32933 0.0225 0.002)
(0.332138 0.0225 -0.002)
(0.331875 0.0225 -0.002)
(0.331875 0.0225 0.002)
(0.332138 0.0225 0.002)
(0.334947 0.0225 -0.002)
(0.334688 0.0225 -0.002)
(0.334688 0.0225 0.002)
(0.334947 0.0225 0.002)
(0.337755 0.0225 -0.002)
(0.3375 0.0225 -0.002)
(0.3375 0.0225 0.002)
(0.337755 0.0225 0.002)
(0.340564 0.0225 -0.002)
(0.340313 0.0225 -0.002)
(0.340313 0.0225 0.002)
(0.340564 0.0225 0.002)
(0.343372 0.0225 -0.002)
(0.343125 0.0225 -0.002)
(0.343125 0.0225 0.002)
(0.343372 0.0225 0.002)
(0.346181 0.0225 -0.002)
(0.345937 0.0225 -0.002)
(0.345937 0.0225 0.002)
(0.346181 0.0225 0.002)
(0.348989 0.0225 -0.002)
(0.34875 0.0225 -0.002)
(0.34875 0.0225 0.002)
(0.348989 0.0225 0.002)
(0.351798 0.0225 -0.002)
(0.351562 0.0225 -0.002)
(0.351562 0.0225 0.002)
(0.351798 0.0225 0.002)
(0.354606 0.0225 -0.002)
(0.354375 0.0225 -0.002)
(0.354375 0.0225 0.002)
(0.354606 0.0225 0.002)
(0.357415 0.0225 -0.002)
(0.357188 0.0225 -0.002)
(0.357188 0.0225 0.002)
(0.357415 0.0225 0.002)
(0.360223 0.0225 -0.002)
(0.36 0.0225 -0.002)
(0.36 0.0225 0.002)
(0.360223 0.0225 0.002)
(0.363032 0.0225 -0.002)
(0.362812 0.0225 -0.002)
(0.362812 0.0225 0.002)
(0.363032 0.0225 0.002)
(0.36584 0.0225 -0.002)
(0.365625 0.0225 -0.002)
(0.365625 0.0225 0.002)
(0.36584 0.0225 0.002)
(0.368649 0.0225 -0.002)
(0.368437 0.0225 -0.002)
(0.368437 0.0225 0.002)
(0.368649 0.0225 0.002)
(0.371457 0.0225 -0.002)
(0.37125 0.0225 -0.002)
(0.37125 0.0225 0.002)
(0.371457 0.0225 0.002)
(0.374266 0.0225 -0.002)
(0.374063 0.0225 -0.002)
(0.374063 0.0225 0.002)
(0.374266 0.0225 0.002)
(0.377075 0.0225 -0.002)
(0.376875 0.0225 -0.002)
(0.376875 0.0225 0.002)
(0.377075 0.0225 0.002)
(0.379883 0.0225 -0.002)
(0.379687 0.0225 -0.002)
(0.379687 0.0225 0.002)
(0.379883 0.0225 0.002)
(0.382692 0.0225 -0.002)
(0.3825 0.0225 -0.002)
(0.3825 0.0225 0.002)
(0.382692 0.0225 0.002)
(0.3855 0.0225 -0.002)
(0.385312 0.0225 -0.002)
(0.385312 0.0225 0.002)
(0.3855 0.0225 0.002)
(0.388308 0.0225 -0.002)
(0.388125 0.0225 -0.002)
(0.388125 0.0225 0.002)
(0.388308 0.0225 0.002)
(0.391117 0.0225 -0.002)
(0.390938 0.0225 -0.002)
(0.390938 0.0225 0.002)
(0.391117 0.0225 0.002)
(0.393925 0.0225 -0.002)
(0.39375 0.0225 -0.002)
(0.39375 0.0225 0.002)
(0.393925 0.0225 0.002)
(0.396734 0.0225 -0.002)
(0.396562 0.0225 -0.002)
(0.396562 0.0225 0.002)
(0.396734 0.0225 0.002)
(0.399543 0.0225 -0.002)
(0.399375 0.0225 -0.002)
(0.399375 0.0225 0.002)
(0.399543 0.0225 0.002)
(0.402351 0.0225 -0.002)
(0.402187 0.0225 -0.002)
(0.402187 0.0225 0.002)
(0.402351 0.0225 0.002)
(0.40516 0.0225 -0.002)
(0.405 0.0225 -0.002)
(0.405 0.0225 0.002)
(0.40516 0.0225 0.002)
(0.407968 0.0225 -0.002)
(0.407813 0.0225 -0.002)
(0.407813 0.0225 0.002)
(0.407968 0.0225 0.002)
(0.410777 0.0225 -0.002)
(0.410625 0.0225 -0.002)
(0.410625 0.0225 0.002)
(0.410777 0.0225 0.002)
(0.413585 0.0225 -0.002)
(0.413437 0.0225 -0.002)
(0.413437 0.0225 0.002)
(0.413585 0.0225 0.002)
(0.416394 0.0225 -0.002)
(0.41625 0.0225 -0.002)
(0.41625 0.0225 0.002)
(0.416394 0.0225 0.002)
(0.419202 0.0225 -0.002)
(0.419062 0.0225 -0.002)
(0.419062 0.0225 0.002)
(0.419202 0.0225 0.002)
(0.422011 0.0225 -0.002)
(0.421875 0.0225 -0.002)
(0.421875 0.0225 0.002)
(0.422011 0.0225 0.002)
(0.424819 0.0225 -0.002)
(0.424688 0.0225 -0.002)
(0.424688 0.0225 0.002)
(0.424819 0.0225 0.002)
(0.427628 0.0225 -0.002)
(0.4275 0.0225 -0.002)
(0.4275 0.0225 0.002)
(0.427628 0.0225 0.002)
(0.430436 0.0225 -0.002)
(0.430313 0.0225 -0.002)
(0.430313 0.0225 0.002)
(0.430436 0.0225 0.002)
(0.433245 0.0225 -0.002)
(0.433125 0.0225 -0.002)
(0.433125 0.0225 0.002)
(0.433245 0.0225 0.002)
(0.436053 0.0225 -0.002)
(0.435937 0.0225 -0.002)
(0.435937 0.0225 0.002)
(0.436053 0.0225 0.002)
(0.438862 0.0225 -0.002)
(0.43875 0.0225 -0.002)
(0.43875 0.0225 0.002)
(0.438862 0.0225 0.002)
(0.44167 0.0225 -0.002)
(0.441563 0.0225 -0.002)
(0.441563 0.0225 0.002)
(0.44167 0.0225 0.002)
(0.444479 0.0225 -0.002)
(0.444375 0.0225 -0.002)
(0.444375 0.0225 0.002)
(0.444479 0.0225 0.002)
(0.447287 0.0225 -0.002)
(0.447188 0.0225 -0.002)
(0.447188 0.0225 0.002)
(0.447287 0.0225 0.002)
(0.450096 0.0225 -0.002)
(0.45 0.0225 -0.002)
(0.45 0.0225 0.002)
(0.450096 0.0225 0.002)
(0.452904 0.0225 -0.002)
(0.452812 0.0225 -0.002)
(0.452812 0.0225 0.002)
(0.452904 0.0225 0.002)
(0.455713 0.0225 -0.002)
(0.455625 0.0225 -0.002)
(0.455625 0.0225 0.002)
(0.455713 0.0225 0.002)
(0.458521 0.0225 -0.002)
(0.458438 0.0225 -0.002)
(0.458438 0.0225 0.002)
(0.458521 0.0225 0.002)
(0.46133 0.0225 -0.002)
(0.46125 0.0225 -0.002)
(0.46125 0.0225 0.002)
(0.46133 0.0225 0.002)
(0.464138 0.0225 -0.002)
(0.464063 0.0225 -0.002)
(0.464063 0.0225 0.002)
(0.464138 0.0225 0.002)
(0.466947 0.0225 -0.002)
(0.466875 0.0225 -0.002)
(0.466875 0.0225 0.002)
(0.466947 0.0225 0.002)
(0.469755 0.0225 -0.002)
(0.469687 0.0225 -0.002)
(0.469687 0.0225 0.002)
(0.469755 0.0225 0.002)
(0.472564 0.0225 -0.002)
(0.4725 0.0225 -0.002)
(0.4725 0.0225 0.002)
(0.472564 0.0225 0.002)
(0.475372 0.0225 -0.002)
(0.475313 0.0225 -0.002)
(0.475313 0.0225 0.002)
(0.475372 0.0225 0.002)
(0.478181 0.0225 -0.002)
(0.478125 0.0225 -0.002)
(0.478125 0.0225 0.002)
(0.478181 0.0225 0.002)
(0.480989 0.0225 -0.002)
(0.480938 0.0225 -0.002)
(0.480938 0.0225 0.002)
(0.480989 0.0225 0.002)
(0.483798 0.0225 -0.002)
(0.48375 0.0225 -0.002)
(0.48375 0.0225 0.002)
(0.483798 0.0225 0.002)
(0.486606 0.0225 -0.002)
(0.486562 0.0225 -0.002)
(0.486562 0.0225 0.002)
(0.486606 0.0225 0.002)
(0.489415 0.0225 -0.002)
(0.489375 0.0225 -0.002)
(0.489375 0.0225 0.002)
(0.489415 0.0225 0.002)
(0.492223 0.0225 -0.002)
(0.492188 0.0225 -0.002)
(0.492188 0.0225 0.002)
(0.492223 0.0225 0.002)
(0.495032 0.0225 -0.002)
(0.495 0.0225 -0.002)
(0.495 0.0225 0.002)
(0.495032 0.0225 0.002)
(0.500649 0.0225 -0.002)
(0.500625 0.0225 -0.002)
(0.49784 0.0225 -0.002)
(0.497813 0.0225 -0.002)
(0.49784 0.0225 0.002)
(0.500625 0.0225 0.002)
(0.497813 0.0225 0.002)
(0.500649 0.0225 0.002)
(0.503438 0.0225 -0.002)
(0.503438 0.0225 0.002)
(0.503457 0.0225 0.002)
(0.503457 0.0225 -0.002)
(0.506266 0.0225 -0.002)
(0.509074 0.0225 -0.002)
(0.511883 0.0225 -0.002)
(0.511875 0.0225 0.002)
(0.514687 0.0225 0.002)
(0.509063 0.0225 0.002)
(0.50625 0.0225 0.002)
(0.514687 0.0225 -0.002)
(0.514691 0.0225 -0.002)
(0.5175 0.0225 0)
(0.514691 0.0225 0.002)
(0.00635106 0.0225 0.002)
(0.0075 0.0225 0)
(-0.005 0.0225 0.002)
(-0.0075 0.0225 8.67362e-19)
(-0.00488298 0.0225 -0.002)
(-0.005 0.0225 -0.002)
(-0.00488298 0.0225 0.002)
(-0.00207447 0.0225 -0.002)
(-0.0025 0.0225 -0.002)
(-0.0025 0.0225 0.002)
(-0.00207447 0.0225 0.002)
(0.000734043 0.0225 -0.002)
(1.40946e-17 0.0225 -0.002)
(1.38778e-17 0.0225 0.002)
(0.000734043 0.0225 0.002)
(0.00635106 0.0225 -0.002)
(0.005 0.0225 -0.002)
(0.00354255 0.0225 -0.002)
(0.0025 0.0225 -0.002)
(0.00354255 0.0225 0.002)
(0.005 0.0225 0.002)
(0.0025 0.0225 0.002)
(-0.0329681 -0.0225 0.002)
(-0.035 -0.0225 0.002)
(-0.0357766 -0.0225 -0.002)
(-0.035 -0.0225 -0.002)
(-0.0357766 -0.0225 0.002)
(-0.0375 -0.0225 0)
(-0.0329681 -0.0225 -0.002)
(-0.0325 -0.0225 0.002)
(-0.0325 -0.0225 -0.002)
(-0.0301596 -0.0225 -0.002)
(-0.0301596 -0.0225 0.002)
(-0.03 -0.0225 0.002)
(-0.0275 -0.0225 0.002)
(-0.0273511 -0.0225 0.002)
(-0.025 -0.0225 0.002)
(-0.03 -0.0225 -0.002)
(-0.0275 -0.0225 -0.002)
(-0.0273511 -0.0225 -0.002)
(-0.0245425 -0.0225 0.002)
(-0.0225 -0.0225 0)
(-0.0245425 -0.0225 -0.002)
(-0.025 -0.0225 -0.002)
(0.00635106 -0.0225 -0.002)
(0.0075 -0.0225 0)
(-0.005 -0.0225 -0.002)
(-0.0075 -0.0225 0)
(-0.00488298 -0.0225 0.002)
(-0.005 -0.0225 0.002)
(-0.00488298 -0.0225 -0.002)
(-0.00207447 -0.0225 0.002)
(-0.0025 -0.0225 0.002)
(-0.0025 -0.0225 -0.002)
(-0.00207447 -0.0225 -0.002)
(0.000734043 -0.0225 0.002)
(1.38778e-17 -0.0225 0.002)
(1.30104e-17 -0.0225 -0.002)
(0.000734043 -0.0225 -0.002)
(0.00635106 -0.0225 0.002)
(0.005 -0.0225 0.002)
(0.00354255 -0.0225 0.002)
(0.0025 -0.0225 0.002)
(0.00354255 -0.0225 -0.002)
(0.005 -0.0225 -0.002)
(0.0025 -0.0225 -0.002)
(-0.0329681 0.0225 -0.002)
(-0.035 0.0225 -0.002)
(-0.0357766 0.0225 0.002)
(-0.035 0.0225 0.002)
(-0.0357766 0.0225 -0.002)
(-0.0375 0.0225 0)
(-0.0329681 0.0225 0.002)
(-0.0325 0.0225 -0.002)
(-0.0325 0.0225 0.002)
(-0.0301596 0.0225 0.002)
(-0.0301596 0.0225 -0.002)
(-0.03 0.0225 -0.002)
(-0.0275 0.0225 -0.002)
(-0.0273511 0.0225 -0.002)
(-0.025 0.0225 -0.002)
(-0.03 0.0225 0.002)
(-0.0275 0.0225 0.002)
(-0.0273511 0.0225 0.002)
(-0.0245425 0.0225 -0.002)
(-0.0225 0.0225 0)
(-0.0245425 0.0225 0.002)
(-0.025 0.0225 0.002)
(-0.0526277 -0.0225 -0.002)
(-0.0525 -0.0225 0)
(-0.0526277 -0.0225 0.002)
(-0.0553125 -0.0225 0.002)
(-0.0554362 -0.0225 -0.002)
(-0.0553125 -0.0225 -0.002)
(-0.0554362 -0.0225 0.002)
(-0.058125 -0.0225 0.002)
(-0.0582447 -0.0225 -0.002)
(-0.058125 -0.0225 -0.002)
(-0.0582447 -0.0225 0.002)
(-0.0609375 -0.0225 0.002)
(-0.0610532 -0.0225 -0.002)
(-0.0609375 -0.0225 -0.002)
(-0.0610532 -0.0225 0.002)
(-0.06375 -0.0225 0.002)
(-0.0638617 -0.0225 -0.002)
(-0.06375 -0.0225 -0.002)
(-0.0638617 -0.0225 0.002)
(-0.0665625 -0.0225 0.002)
(-0.0666702 -0.0225 -0.002)
(-0.0665625 -0.0225 -0.002)
(-0.0666702 -0.0225 0.002)
(-0.069375 -0.0225 0.002)
(-0.0694787 -0.0225 -0.002)
(-0.069375 -0.0225 -0.002)
(-0.0694787 -0.0225 0.002)
(-0.0721875 -0.0225 0.002)
(-0.0722872 -0.0225 -0.002)
(-0.0721875 -0.0225 -0.002)
(-0.0722872 -0.0225 0.002)
(-0.075 -0.0225 0.002)
(-0.0750957 -0.0225 -0.002)
(-0.075 -0.0225 -0.002)
(-0.0750957 -0.0225 0.002)
(-0.0778125 -0.0225 0.002)
(-0.0779042 -0.0225 -0.002)
(-0.0778125 -0.0225 -0.002)
(-0.0779042 -0.0225 0.002)
(-0.080625 -0.0225 0.002)
(-0.0807128 -0.0225 -0.002)
(-0.080625 -0.0225 -0.002)
(-0.0807128 -0.0225 0.002)
(-0.0834375 -0.0225 0.002)
(-0.0835213 -0.0225 -0.002)
(-0.0834375 -0.0225 -0.002)
(-0.0835213 -0.0225 0.002)
(-0.08625 -0.0225 0.002)
(-0.0863298 -0.0225 -0.002)
(-0.08625 -0.0225 -0.002)
(-0.0863298 -0.0225 0.002)
(-0.0890625 -0.0225 0.002)
(-0.0891383 -0.0225 -0.002)
(-0.0890625 -0.0225 -0.002)
(-0.0891383 -0.0225 0.002)
(-0.091875 -0.0225 0.002)
(-0.0919468 -0.0225 -0.002)
(-0.091875 -0.0225 -0.002)
(-0.0919468 -0.0225 0.002)
(-0.0946875 -0.0225 0.002)
(-0.0947553 -0.0225 -0.002)
(-0.0946875 -0.0225 -0.002)
(-0.0947553 -0.0225 0.002)
(-0.0975 -0.0225 0.002)
(-0.0975638 -0.0225 -0.002)
(-0.0975 -0.0225 -0.002)
(-0.0975638 -0.0225 0.002)
(-0.100313 -0.0225 0.002)
(-0.100372 -0.0225 -0.002)
(-0.100313 -0.0225 -0.002)
(-0.100372 -0.0225 0.002)
(-0.103125 -0.0225 0.002)
(-0.103181 -0.0225 -0.002)
(-0.103125 -0.0225 -0.002)
(-0.103181 -0.0225 0.002)
(-0.105938 -0.0225 0.002)
(-0.105989 -0.0225 -0.002)
(-0.105938 -0.0225 -0.002)
(-0.105989 -0.0225 0.002)
(-0.10875 -0.0225 0.002)
(-0.108798 -0.0225 -0.002)
(-0.10875 -0.0225 -0.002)
(-0.108798 -0.0225 0.002)
(-0.111562 -0.0225 0.002)
(-0.111606 -0.0225 -0.002)
(-0.111562 -0.0225 -0.002)
(-0.111606 -0.0225 0.002)
(-0.114375 -0.0225 0.002)
(-0.114415 -0.0225 -0.002)
(-0.114375 -0.0225 -0.002)
(-0.114415 -0.0225 0.002)
(-0.117188 -0.0225 0.002)
(-0.117223 -0.0225 -0.002)
(-0.117188 -0.0225 -0.002)
(-0.117223 -0.0225 0.002)
(-0.12 -0.0225 0.002)
(-0.120032 -0.0225 -0.002)
(-0.12 -0.0225 -0.002)
(-0.120032 -0.0225 0.002)
(-0.122813 -0.0225 0.002)
(-0.12284 -0.0225 -0.002)
(-0.122813 -0.0225 -0.002)
(-0.12284 -0.0225 0.002)
(-0.125625 -0.0225 0.002)
(-0.125649 -0.0225 -0.002)
(-0.125625 -0.0225 -0.002)
(-0.139692 -0.0225 0.002)
(-0.1425 -0.0225 0)
(-0.139687 -0.0225 0.002)
(-0.134062 -0.0225 0.002)
(-0.136875 -0.0225 0.002)
(-0.139692 -0.0225 -0.002)
(-0.125649 -0.0225 0.002)
(-0.128438 -0.0225 0.002)
(-0.128457 -0.0225 0.002)
(-0.13125 -0.0225 0.002)
(-0.128457 -0.0225 -0.002)
(-0.128438 -0.0225 -0.002)
(-0.131266 -0.0225 -0.002)
(-0.134074 -0.0225 -0.002)
(-0.136883 -0.0225 -0.002)
(-0.139687 -0.0225 -0.002)
(-0.0526277 0.0225 0.002)
(-0.0525 0.0225 0)
(-0.0526277 0.0225 -0.002)
(-0.0553125 0.0225 -0.002)
(-0.0554362 0.0225 0.002)
(-0.0553125 0.0225 0.002)
(-0.0554362 0.0225 -0.002)
(-0.058125 0.0225 -0.002)
(-0.0582447 0.0225 0.002)
(-0.058125 0.0225 0.002)
(-0.0582447 0.0225 -0.002)
(-0.0609375 0.0225 -0.002)
(-0.0610532 0.0225 0.002)
(-0.0609375 0.0225 0.002)
(-0.0610532 0.0225 -0.002)
(-0.06375 0.0225 -0.002)
(-0.0638617 0.0225 0.002)
(-0.06375 0.0225 0.002)
(-0.0638617 0.0225 -0.002)
(-0.0665625 0.0225 -0.002)
(-0.0666702 0.0225 0.002)
(-0.0665625 0.0225 0.002)
(-0.0666702 0.0225 -0.002)
(-0.069375 0.0225 -0.002)
(-0.0694787 0.0225 0.002)
(-0.069375 0.0225 0.002)
(-0.0694787 0.0225 -0.002)
(-0.0721875 0.0225 -0.002)
(-0.0722872 0.0225 0.002)
(-0.0721875 0.0225 0.002)
(-0.0722872 0.0225 -0.002)
(-0.075 0.0225 -0.002)
(-0.0750957 0.0225 0.002)
(-0.075 0.0225 0.002)
(-0.0750957 0.0225 -0.002)
(-0.0778125 0.0225 -0.002)
(-0.0779042 0.0225 0.002)
(-0.0778125 0.0225 0.002)
(-0.0779042 0.0225 -0.002)
(-0.080625 0.0225 -0.002)
(-0.0807128 0.0225 0.002)
(-0.080625 0.0225 0.002)
(-0.0807128 0.0225 -0.002)
(-0.0834375 0.0225 -0.002)
(-0.0835213 0.0225 0.002)
(-0.0834375 0.0225 0.002)
(-0.0835213 0.0225 -0.002)
(-0.08625 0.0225 -0.002)
(-0.0863298 0.0225 0.002)
(-0.08625 0.0225 0.002)
(-0.0863298 0.0225 -0.002)
(-0.0890625 0.0225 -0.002)
(-0.0891383 0.0225 0.002)
(-0.0890625 0.0225 0.002)
(-0.0891383 0.0225 -0.002)
(-0.091875 0.0225 -0.002)
(-0.0919468 0.0225 0.002)
(-0.091875 0.0225 0.002)
(-0.0919468 0.0225 -0.002)
(-0.0946875 0.0225 -0.002)
(-0.0947553 0.0225 0.002)
(-0.0946875 0.0225 0.002)
(-0.0947553 0.0225 -0.002)
(-0.0975 0.0225 -0.002)
(-0.0975638 0.0225 0.002)
(-0.0975 0.0225 0.002)
(-0.0975638 0.0225 -0.002)
(-0.100313 0.0225 -0.002)
(-0.100372 0.0225 0.002)
(-0.100313 0.0225 0.002)
(-0.100372 0.0225 -0.002)
(-0.103125 0.0225 -0.002)
(-0.103181 0.0225 0.002)
(-0.103125 0.0225 0.002)
(-0.103181 0.0225 -0.002)
(-0.105938 0.0225 -0.002)
(-0.105989 0.0225 0.002)
(-0.105938 0.0225 0.002)
(-0.105989 0.0225 -0.002)
(-0.10875 0.0225 -0.002)
(-0.108798 0.0225 0.002)
(-0.10875 0.0225 0.002)
(-0.108798 0.0225 -0.002)
(-0.111562 0.0225 -0.002)
(-0.111606 0.0225 0.002)
(-0.111562 0.0225 0.002)
(-0.111606 0.0225 -0.002)
(-0.114375 0.0225 -0.002)
(-0.114415 0.0225 0.002)
(-0.114375 0.0225 0.002)
(-0.114415 0.0225 -0.002)
(-0.117188 0.0225 -0.002)
(-0.117223 0.0225 0.002)
(-0.117188 0.0225 0.002)
(-0.117223 0.0225 -0.002)
(-0.12 0.0225 -0.002)
(-0.120032 0.0225 0.002)
(-0.12 0.0225 0.002)
(-0.120032 0.0225 -0.002)
(-0.122813 0.0225 -0.002)
(-0.12284 0.0225 0.002)
(-0.122813 0.0225 0.002)
(-0.12284 0.0225 -0.002)
(-0.125625 0.0225 -0.002)
(-0.125649 0.0225 0.002)
(-0.125625 0.0225 0.002)
(-0.139692 0.0225 -0.002)
(-0.1425 0.0225 0)
(-0.139687 0.0225 -0.002)
(-0.134074 0.0225 -0.002)
(-0.136883 0.0225 -0.002)
(-0.139692 0.0225 0.002)
(-0.125649 0.0225 -0.002)
(-0.128438 0.0225 -0.002)
(-0.128457 0.0225 -0.002)
(-0.131266 0.0225 -0.002)
(-0.128457 0.0225 0.002)
(-0.128438 0.0225 0.002)
(-0.13125 0.0225 0.002)
(-0.134062 0.0225 0.002)
(-0.136875 0.0225 0.002)
(-0.139687 0.0225 0.002)
(0.0232021 -0.0225 -0.002)
(0.0225 -0.0225 0)
(0.0232021 -0.0225 0.002)
(0.0260106 -0.0225 0.002)
(0.0253125 -0.0225 0.002)
(0.0253125 -0.0225 -0.002)
(0.0260106 -0.0225 -0.002)
(0.0288191 -0.0225 0.002)
(0.028125 -0.0225 0.002)
(0.028125 -0.0225 -0.002)
(0.0288191 -0.0225 -0.002)
(0.0316277 -0.0225 0.002)
(0.0309375 -0.0225 0.002)
(0.0309375 -0.0225 -0.002)
(0.0316277 -0.0225 -0.002)
(0.0344362 -0.0225 0.002)
(0.03375 -0.0225 0.002)
(0.03375 -0.0225 -0.002)
(0.0344362 -0.0225 -0.002)
(0.0372447 -0.0225 0.002)
(0.0365625 -0.0225 0.002)
(0.0365625 -0.0225 -0.002)
(0.0372447 -0.0225 -0.002)
(0.0400532 -0.0225 0.002)
(0.039375 -0.0225 0.002)
(0.039375 -0.0225 -0.002)
(0.0400532 -0.0225 -0.002)
(0.0428617 -0.0225 0.002)
(0.0421875 -0.0225 0.002)
(0.0421875 -0.0225 -0.002)
(0.0428617 -0.0225 -0.002)
(0.0456702 -0.0225 0.002)
(0.045 -0.0225 0.002)
(0.045 -0.0225 -0.002)
(0.0456702 -0.0225 -0.002)
(0.0484787 -0.0225 0.002)
(0.0478125 -0.0225 0.002)
(0.0478125 -0.0225 -0.002)
(0.0484787 -0.0225 -0.002)
(0.0512872 -0.0225 0.002)
(0.050625 -0.0225 0.002)
(0.050625 -0.0225 -0.002)
(0.0512872 -0.0225 -0.002)
(0.0540957 -0.0225 0.002)
(0.0534375 -0.0225 0.002)
(0.0534375 -0.0225 -0.002)
(0.0540957 -0.0225 -0.002)
(0.0569043 -0.0225 0.002)
(0.05625 -0.0225 0.002)
(0.05625 -0.0225 -0.002)
(0.0569043 -0.0225 -0.002)
(0.0597128 -0.0225 0.002)
(0.0590625 -0.0225 0.002)
(0.0590625 -0.0225 -0.002)
(0.0597128 -0.0225 -0.002)
(0.0625213 -0.0225 0.002)
(0.061875 -0.0225 0.002)
(0.061875 -0.0225 -0.002)
(0.0625213 -0.0225 -0.002)
(0.0653298 -0.0225 0.002)
(0.0646875 -0.0225 0.002)
(0.0646875 -0.0225 -0.002)
(0.0653298 -0.0225 -0.002)
(0.0681383 -0.0225 0.002)
(0.0675 -0.0225 0.002)
(0.0675 -0.0225 -0.002)
(0.0681383 -0.0225 -0.002)
(0.0709468 -0.0225 0.002)
(0.0703125 -0.0225 0.002)
(0.0703125 -0.0225 -0.002)
(0.0709468 -0.0225 -0.002)
(0.0737553 -0.0225 0.002)
(0.073125 -0.0225 0.002)
(0.073125 -0.0225 -0.002)
(0.0737553 -0.0225 -0.002)
(0.0765638 -0.0225 0.002)
(0.0759375 -0.0225 0.002)
(0.0759375 -0.0225 -0.002)
(0.0765638 -0.0225 -0.002)
(0.0793723 -0.0225 0.002)
(0.07875 -0.0225 0.002)
(0.07875 -0.0225 -0.002)
(0.0793723 -0.0225 -0.002)
(0.0821809 -0.0225 0.002)
(0.0815625 -0.0225 0.002)
(0.0815625 -0.0225 -0.002)
(0.0821809 -0.0225 -0.002)
(0.0849894 -0.0225 0.002)
(0.084375 -0.0225 0.002)
(0.084375 -0.0225 -0.002)
(0.0849894 -0.0225 -0.002)
(0.0877979 -0.0225 0.002)
(0.0871875 -0.0225 0.002)
(0.0871875 -0.0225 -0.002)
(0.0877979 -0.0225 -0.002)
(0.0906064 -0.0225 0.002)
(0.09 -0.0225 0.002)
(0.09 -0.0225 -0.002)
(0.0906064 -0.0225 -0.002)
(0.0934149 -0.0225 0.002)
(0.0928125 -0.0225 0.002)
(0.0928125 -0.0225 -0.002)
(0.0934149 -0.0225 -0.002)
(0.0962234 -0.0225 0.002)
(0.095625 -0.0225 0.002)
(0.095625 -0.0225 -0.002)
(0.0962234 -0.0225 -0.002)
(0.0990319 -0.0225 0.002)
(0.0984375 -0.0225 0.002)
(0.0984375 -0.0225 -0.002)
(0.0990319 -0.0225 -0.002)
(0.10184 -0.0225 0.002)
(0.10125 -0.0225 0.002)
(0.10125 -0.0225 -0.002)
(0.10184 -0.0225 -0.002)
(0.104649 -0.0225 0.002)
(0.104062 -0.0225 0.002)
(0.104062 -0.0225 -0.002)